
---------- Begin Simulation Statistics ----------
simSeconds                                   0.002570                       # Number of seconds simulated (Second)
simTicks                                   2570290000                       # Number of ticks simulated (Tick)
finalTick                                  2570290000                       # Number of ticks from beginning of simulation (restored from checkpoints and never reset) (Tick)
simFreq                                  1000000000000                       # The number of ticks per simulated second ((Tick/Second))
hostSeconds                                     52.60                       # Real time elapsed on the host (Second)
hostTickRate                                 48867658                       # The number of ticks simulated per host second (ticks/s) ((Tick/Second))
hostMemory                                    8539212                       # Number of bytes of host memory used (Byte)
simInsts                                      4403247                       # Number of instructions simulated (Count)
simOps                                        8893406                       # Number of ops (including micro ops) simulated (Count)
hostInstRate                                    83717                       # Simulator instruction rate (inst/s) ((Count/Second))
hostOpRate                                     169086                       # Simulator op (including micro ops) rate (op/s) ((Count/Second))
system.clk_domain.clock                          1000                       # Clock period in ticks (Tick)
system.cpu.numCycles                          5140581                       # Number of cpu cycles simulated (Cycle)
system.cpu.numWorkItemsStarted                      0                       # Number of work items this cpu started (Count)
system.cpu.numWorkItemsCompleted                    0                       # Number of work items this cpu completed (Count)
system.cpu.instsAdded                        16702215                       # Number of instructions added to the IQ (excludes non-spec) (Count)
system.cpu.nonSpecInstsAdded                       67                       # Number of non-speculative instructions added to the IQ (Count)
system.cpu.instsIssued                       14665027                       # Number of instructions issued (Count)
system.cpu.squashedInstsIssued                  92343                       # Number of squashed instructions issued (Count)
system.cpu.squashedInstsExamined              7808870                       # Number of squashed instructions iterated over during squash; mainly for profiling (Count)
system.cpu.squashedOperandsExamined           8273495                       # Number of squashed operands that are examined and possibly removed from graph (Count)
system.cpu.squashedNonSpecRemoved                   4                       # Number of squashed non-spec instructions that were removed (Count)
system.cpu.numIssuedDist::samples             5064449                       # Number of insts issued each cycle (Count)
system.cpu.numIssuedDist::mean               2.895681                       # Number of insts issued each cycle (Count)
system.cpu.numIssuedDist::stdev              2.858080                       # Number of insts issued each cycle (Count)
system.cpu.numIssuedDist::underflows                0      0.00%      0.00% # Number of insts issued each cycle (Count)
system.cpu.numIssuedDist::0                   2158757     42.63%     42.63% # Number of insts issued each cycle (Count)
system.cpu.numIssuedDist::1                    143199      2.83%     45.45% # Number of insts issued each cycle (Count)
system.cpu.numIssuedDist::2                    205796      4.06%     49.52% # Number of insts issued each cycle (Count)
system.cpu.numIssuedDist::3                    301505      5.95%     55.47% # Number of insts issued each cycle (Count)
system.cpu.numIssuedDist::4                    269837      5.33%     60.80% # Number of insts issued each cycle (Count)
system.cpu.numIssuedDist::5                    606323     11.97%     72.77% # Number of insts issued each cycle (Count)
system.cpu.numIssuedDist::6                    741906     14.65%     87.42% # Number of insts issued each cycle (Count)
system.cpu.numIssuedDist::7                    453686      8.96%     96.38% # Number of insts issued each cycle (Count)
system.cpu.numIssuedDist::8                    183440      3.62%    100.00% # Number of insts issued each cycle (Count)
system.cpu.numIssuedDist::overflows                 0      0.00%    100.00% # Number of insts issued each cycle (Count)
system.cpu.numIssuedDist::min_value                 0                       # Number of insts issued each cycle (Count)
system.cpu.numIssuedDist::max_value                 8                       # Number of insts issued each cycle (Count)
system.cpu.numIssuedDist::total               5064449                       # Number of insts issued each cycle (Count)
system.cpu.statFuBusy::No_OpClass                   0      0.00%      0.00% # attempts to use FU when none available (Count)
system.cpu.statFuBusy::IntAlu                  500143     98.61%     98.61% # attempts to use FU when none available (Count)
system.cpu.statFuBusy::IntMult                      0      0.00%     98.61% # attempts to use FU when none available (Count)
system.cpu.statFuBusy::IntDiv                       0      0.00%     98.61% # attempts to use FU when none available (Count)
system.cpu.statFuBusy::FloatAdd                     0      0.00%     98.61% # attempts to use FU when none available (Count)
system.cpu.statFuBusy::FloatCmp                     0      0.00%     98.61% # attempts to use FU when none available (Count)
system.cpu.statFuBusy::FloatCvt                     0      0.00%     98.61% # attempts to use FU when none available (Count)
system.cpu.statFuBusy::FloatMult                    0      0.00%     98.61% # attempts to use FU when none available (Count)
system.cpu.statFuBusy::FloatMultAcc                 0      0.00%     98.61% # attempts to use FU when none available (Count)
system.cpu.statFuBusy::FloatDiv                     0      0.00%     98.61% # attempts to use FU when none available (Count)
system.cpu.statFuBusy::FloatMisc                    0      0.00%     98.61% # attempts to use FU when none available (Count)
system.cpu.statFuBusy::FloatSqrt                    0      0.00%     98.61% # attempts to use FU when none available (Count)
system.cpu.statFuBusy::SimdAdd                      1      0.00%     98.61% # attempts to use FU when none available (Count)
system.cpu.statFuBusy::SimdAddAcc                   0      0.00%     98.61% # attempts to use FU when none available (Count)
system.cpu.statFuBusy::SimdAlu                     17      0.00%     98.61% # attempts to use FU when none available (Count)
system.cpu.statFuBusy::SimdCmp                      0      0.00%     98.61% # attempts to use FU when none available (Count)
system.cpu.statFuBusy::SimdCvt                     13      0.00%     98.62% # attempts to use FU when none available (Count)
system.cpu.statFuBusy::SimdMisc                     3      0.00%     98.62% # attempts to use FU when none available (Count)
system.cpu.statFuBusy::SimdMult                     0      0.00%     98.62% # attempts to use FU when none available (Count)
system.cpu.statFuBusy::SimdMultAcc                  0      0.00%     98.62% # attempts to use FU when none available (Count)
system.cpu.statFuBusy::SimdShift                    2      0.00%     98.62% # attempts to use FU when none available (Count)
system.cpu.statFuBusy::SimdShiftAcc                 0      0.00%     98.62% # attempts to use FU when none available (Count)
system.cpu.statFuBusy::SimdDiv                      0      0.00%     98.62% # attempts to use FU when none available (Count)
system.cpu.statFuBusy::SimdSqrt                     0      0.00%     98.62% # attempts to use FU when none available (Count)
system.cpu.statFuBusy::SimdFloatAdd                 0      0.00%     98.62% # attempts to use FU when none available (Count)
system.cpu.statFuBusy::SimdFloatAlu                 0      0.00%     98.62% # attempts to use FU when none available (Count)
system.cpu.statFuBusy::SimdFloatCmp                 0      0.00%     98.62% # attempts to use FU when none available (Count)
system.cpu.statFuBusy::SimdFloatCvt                 0      0.00%     98.62% # attempts to use FU when none available (Count)
system.cpu.statFuBusy::SimdFloatDiv                 0      0.00%     98.62% # attempts to use FU when none available (Count)
system.cpu.statFuBusy::SimdFloatMisc                0      0.00%     98.62% # attempts to use FU when none available (Count)
system.cpu.statFuBusy::SimdFloatMult                0      0.00%     98.62% # attempts to use FU when none available (Count)
system.cpu.statFuBusy::SimdFloatMultAcc             0      0.00%     98.62% # attempts to use FU when none available (Count)
system.cpu.statFuBusy::SimdFloatSqrt                0      0.00%     98.62% # attempts to use FU when none available (Count)
system.cpu.statFuBusy::SimdReduceAdd                0      0.00%     98.62% # attempts to use FU when none available (Count)
system.cpu.statFuBusy::SimdReduceAlu                0      0.00%     98.62% # attempts to use FU when none available (Count)
system.cpu.statFuBusy::SimdReduceCmp                0      0.00%     98.62% # attempts to use FU when none available (Count)
system.cpu.statFuBusy::SimdFloatReduceAdd            0      0.00%     98.62% # attempts to use FU when none available (Count)
system.cpu.statFuBusy::SimdFloatReduceCmp            0      0.00%     98.62% # attempts to use FU when none available (Count)
system.cpu.statFuBusy::SimdAes                      0      0.00%     98.62% # attempts to use FU when none available (Count)
system.cpu.statFuBusy::SimdAesMix                   0      0.00%     98.62% # attempts to use FU when none available (Count)
system.cpu.statFuBusy::SimdSha1Hash                 0      0.00%     98.62% # attempts to use FU when none available (Count)
system.cpu.statFuBusy::SimdSha1Hash2                0      0.00%     98.62% # attempts to use FU when none available (Count)
system.cpu.statFuBusy::SimdSha256Hash               0      0.00%     98.62% # attempts to use FU when none available (Count)
system.cpu.statFuBusy::SimdSha256Hash2              0      0.00%     98.62% # attempts to use FU when none available (Count)
system.cpu.statFuBusy::SimdShaSigma2                0      0.00%     98.62% # attempts to use FU when none available (Count)
system.cpu.statFuBusy::SimdShaSigma3                0      0.00%     98.62% # attempts to use FU when none available (Count)
system.cpu.statFuBusy::SimdPredAlu                  0      0.00%     98.62% # attempts to use FU when none available (Count)
system.cpu.statFuBusy::MemRead                    505      0.10%     98.72% # attempts to use FU when none available (Count)
system.cpu.statFuBusy::MemWrite                  6433      1.27%     99.99% # attempts to use FU when none available (Count)
system.cpu.statFuBusy::FloatMemRead                38      0.01%     99.99% # attempts to use FU when none available (Count)
system.cpu.statFuBusy::FloatMemWrite               34      0.01%    100.00% # attempts to use FU when none available (Count)
system.cpu.statFuBusy::IprAccess                    0      0.00%    100.00% # attempts to use FU when none available (Count)
system.cpu.statFuBusy::InstPrefetch                 0      0.00%    100.00% # attempts to use FU when none available (Count)
system.cpu.statIssuedInstType_0::No_OpClass       112521      0.77%      0.77% # Number of instructions issued per FU type, per thread (Count)
system.cpu.statIssuedInstType_0::IntAlu      12273559     83.69%     84.46% # Number of instructions issued per FU type, per thread (Count)
system.cpu.statIssuedInstType_0::IntMult           33      0.00%     84.46% # Number of instructions issued per FU type, per thread (Count)
system.cpu.statIssuedInstType_0::IntDiv          1439      0.01%     84.47% # Number of instructions issued per FU type, per thread (Count)
system.cpu.statIssuedInstType_0::FloatAdd          602      0.00%     84.47% # Number of instructions issued per FU type, per thread (Count)
system.cpu.statIssuedInstType_0::FloatCmp            0      0.00%     84.47% # Number of instructions issued per FU type, per thread (Count)
system.cpu.statIssuedInstType_0::FloatCvt          116      0.00%     84.47% # Number of instructions issued per FU type, per thread (Count)
system.cpu.statIssuedInstType_0::FloatMult            0      0.00%     84.47% # Number of instructions issued per FU type, per thread (Count)
system.cpu.statIssuedInstType_0::FloatMultAcc            0      0.00%     84.47% # Number of instructions issued per FU type, per thread (Count)
system.cpu.statIssuedInstType_0::FloatDiv            0      0.00%     84.47% # Number of instructions issued per FU type, per thread (Count)
system.cpu.statIssuedInstType_0::FloatMisc            0      0.00%     84.47% # Number of instructions issued per FU type, per thread (Count)
system.cpu.statIssuedInstType_0::FloatSqrt            0      0.00%     84.47% # Number of instructions issued per FU type, per thread (Count)
system.cpu.statIssuedInstType_0::SimdAdd          428      0.00%     84.48% # Number of instructions issued per FU type, per thread (Count)
system.cpu.statIssuedInstType_0::SimdAddAcc            0      0.00%     84.48% # Number of instructions issued per FU type, per thread (Count)
system.cpu.statIssuedInstType_0::SimdAlu         1217      0.01%     84.49% # Number of instructions issued per FU type, per thread (Count)
system.cpu.statIssuedInstType_0::SimdCmp            0      0.00%     84.49% # Number of instructions issued per FU type, per thread (Count)
system.cpu.statIssuedInstType_0::SimdCvt         1071      0.01%     84.49% # Number of instructions issued per FU type, per thread (Count)
system.cpu.statIssuedInstType_0::SimdMisc         1028      0.01%     84.50% # Number of instructions issued per FU type, per thread (Count)
system.cpu.statIssuedInstType_0::SimdMult            0      0.00%     84.50% # Number of instructions issued per FU type, per thread (Count)
system.cpu.statIssuedInstType_0::SimdMultAcc            0      0.00%     84.50% # Number of instructions issued per FU type, per thread (Count)
system.cpu.statIssuedInstType_0::SimdShift          258      0.00%     84.50% # Number of instructions issued per FU type, per thread (Count)
system.cpu.statIssuedInstType_0::SimdShiftAcc            0      0.00%     84.50% # Number of instructions issued per FU type, per thread (Count)
system.cpu.statIssuedInstType_0::SimdDiv            0      0.00%     84.50% # Number of instructions issued per FU type, per thread (Count)
system.cpu.statIssuedInstType_0::SimdSqrt            0      0.00%     84.50% # Number of instructions issued per FU type, per thread (Count)
system.cpu.statIssuedInstType_0::SimdFloatAdd            0      0.00%     84.50% # Number of instructions issued per FU type, per thread (Count)
system.cpu.statIssuedInstType_0::SimdFloatAlu            0      0.00%     84.50% # Number of instructions issued per FU type, per thread (Count)
system.cpu.statIssuedInstType_0::SimdFloatCmp            0      0.00%     84.50% # Number of instructions issued per FU type, per thread (Count)
system.cpu.statIssuedInstType_0::SimdFloatCvt            0      0.00%     84.50% # Number of instructions issued per FU type, per thread (Count)
system.cpu.statIssuedInstType_0::SimdFloatDiv            0      0.00%     84.50% # Number of instructions issued per FU type, per thread (Count)
system.cpu.statIssuedInstType_0::SimdFloatMisc            0      0.00%     84.50% # Number of instructions issued per FU type, per thread (Count)
system.cpu.statIssuedInstType_0::SimdFloatMult            0      0.00%     84.50% # Number of instructions issued per FU type, per thread (Count)
system.cpu.statIssuedInstType_0::SimdFloatMultAcc            0      0.00%     84.50% # Number of instructions issued per FU type, per thread (Count)
system.cpu.statIssuedInstType_0::SimdFloatSqrt            0      0.00%     84.50% # Number of instructions issued per FU type, per thread (Count)
system.cpu.statIssuedInstType_0::SimdReduceAdd            0      0.00%     84.50% # Number of instructions issued per FU type, per thread (Count)
system.cpu.statIssuedInstType_0::SimdReduceAlu            0      0.00%     84.50% # Number of instructions issued per FU type, per thread (Count)
system.cpu.statIssuedInstType_0::SimdReduceCmp            0      0.00%     84.50% # Number of instructions issued per FU type, per thread (Count)
system.cpu.statIssuedInstType_0::SimdFloatReduceAdd            0      0.00%     84.50% # Number of instructions issued per FU type, per thread (Count)
system.cpu.statIssuedInstType_0::SimdFloatReduceCmp            0      0.00%     84.50% # Number of instructions issued per FU type, per thread (Count)
system.cpu.statIssuedInstType_0::SimdAes            0      0.00%     84.50% # Number of instructions issued per FU type, per thread (Count)
system.cpu.statIssuedInstType_0::SimdAesMix            0      0.00%     84.50% # Number of instructions issued per FU type, per thread (Count)
system.cpu.statIssuedInstType_0::SimdSha1Hash            0      0.00%     84.50% # Number of instructions issued per FU type, per thread (Count)
system.cpu.statIssuedInstType_0::SimdSha1Hash2            0      0.00%     84.50% # Number of instructions issued per FU type, per thread (Count)
system.cpu.statIssuedInstType_0::SimdSha256Hash            0      0.00%     84.50% # Number of instructions issued per FU type, per thread (Count)
system.cpu.statIssuedInstType_0::SimdSha256Hash2            0      0.00%     84.50% # Number of instructions issued per FU type, per thread (Count)
system.cpu.statIssuedInstType_0::SimdShaSigma2            0      0.00%     84.50% # Number of instructions issued per FU type, per thread (Count)
system.cpu.statIssuedInstType_0::SimdShaSigma3            0      0.00%     84.50% # Number of instructions issued per FU type, per thread (Count)
system.cpu.statIssuedInstType_0::SimdPredAlu            0      0.00%     84.50% # Number of instructions issued per FU type, per thread (Count)
system.cpu.statIssuedInstType_0::MemRead      1417579      9.67%     94.17% # Number of instructions issued per FU type, per thread (Count)
system.cpu.statIssuedInstType_0::MemWrite       851497      5.81%     99.97% # Number of instructions issued per FU type, per thread (Count)
system.cpu.statIssuedInstType_0::FloatMemRead         1856      0.01%     99.99% # Number of instructions issued per FU type, per thread (Count)
system.cpu.statIssuedInstType_0::FloatMemWrite         1823      0.01%    100.00% # Number of instructions issued per FU type, per thread (Count)
system.cpu.statIssuedInstType_0::IprAccess            0      0.00%    100.00% # Number of instructions issued per FU type, per thread (Count)
system.cpu.statIssuedInstType_0::InstPrefetch            0      0.00%    100.00% # Number of instructions issued per FU type, per thread (Count)
system.cpu.statIssuedInstType_0::total       14665027                       # Number of instructions issued per FU type, per thread (Count)
system.cpu.issueRate                         2.852796                       # Inst issue rate ((Count/Cycle))
system.cpu.fuBusy                              507189                       # FU busy when requested (Count)
system.cpu.fuBusyRate                        0.034585                       # FU busy rate (busy events/executed inst) ((Count/Count))
system.cpu.intInstQueueReads                 34976421                       # Number of integer instruction queue reads (Count)
system.cpu.intInstQueueWrites                24496484                       # Number of integer instruction queue writes (Count)
system.cpu.intInstQueueWakeupAccesses        13735979                       # Number of integer instruction queue wakeup accesses (Count)
system.cpu.fpInstQueueReads                     17614                       # Number of floating instruction queue reads (Count)
system.cpu.fpInstQueueWrites                    14726                       # Number of floating instruction queue writes (Count)
system.cpu.fpInstQueueWakeupAccesses             8188                       # Number of floating instruction queue wakeup accesses (Count)
system.cpu.vecInstQueueReads                        0                       # Number of vector instruction queue reads (Count)
system.cpu.vecInstQueueWrites                       0                       # Number of vector instruction queue writes (Count)
system.cpu.vecInstQueueWakeupAccesses               0                       # Number of vector instruction queue wakeup accesses (Count)
system.cpu.intAluAccesses                    15050851                       # Number of integer alu accesses (Count)
system.cpu.fpAluAccesses                         8844                       # Number of floating point alu accesses (Count)
system.cpu.vecAluAccesses                           0                       # Number of vector alu accesses (Count)
system.cpu.numInsts                          13938974                       # Number of executed instructions (Count)
system.cpu.numLoadInsts                       1316479                       # Number of load instructions executed (Count)
system.cpu.numSquashedInsts                    726053                       # Number of squashed instructions skipped in execute (Count)
system.cpu.numSwp                                   0                       # Number of swp insts executed (Count)
system.cpu.numNop                                   0                       # Number of nop insts executed (Count)
system.cpu.numRefs                            2106957                       # Number of memory reference insts executed (Count)
system.cpu.numBranches                        1499796                       # Number of branches executed (Count)
system.cpu.numStoreInsts                       790478                       # Number of stores executed (Count)
system.cpu.numRate                           2.711556                       # Inst execution rate ((Count/Cycle))
system.cpu.timesIdled                             836                       # Number of times that the entire CPU went into an idle state and unscheduled itself (Count)
system.cpu.idleCycles                           76132                       # Total number of cycles that the CPU has spent unscheduled due to idling (Cycle)
system.cpu.committedInsts                     4403247                       # Number of Instructions Simulated (Count)
system.cpu.committedOps                       8893406                       # Number of Ops (including micro ops) Simulated (Count)
system.cpu.cpi                               1.167452                       # CPI: Cycles Per Instruction ((Cycle/Count))
system.cpu.totalCpi                          1.167452                       # CPI: Total CPI of All Threads ((Cycle/Count))
system.cpu.ipc                               0.856566                       # IPC: Instructions Per Cycle ((Count/Cycle))
system.cpu.totalIpc                          0.856566                       # IPC: Total IPC of All Threads ((Count/Cycle))
system.cpu.intRegfileReads                   18181753                       # Number of integer regfile reads (Count)
system.cpu.intRegfileWrites                  11434063                       # Number of integer regfile writes (Count)
system.cpu.fpRegfileReads                       11120                       # Number of floating regfile reads (Count)
system.cpu.fpRegfileWrites                       5925                       # Number of floating regfile writes (Count)
system.cpu.ccRegfileReads                     6829620                       # number of cc regfile reads (Count)
system.cpu.ccRegfileWrites                    5726003                       # number of cc regfile writes (Count)
system.cpu.miscRegfileReads                   5565333                       # number of misc regfile reads (Count)
system.cpu.miscRegfileWrites                       63                       # number of misc regfile writes (Count)
system.cpu.MemDepUnit__0.insertedLoads        1660054                       # Number of loads inserted to the mem dependence unit. (Count)
system.cpu.MemDepUnit__0.insertedStores       1031626                       # Number of stores inserted to the mem dependence unit. (Count)
system.cpu.MemDepUnit__0.conflictingLoads        14650                       # Number of conflicting loads. (Count)
system.cpu.MemDepUnit__0.conflictingStores        17631                       # Number of conflicting stores. (Count)
system.cpu.MemDepUnit__1.insertedLoads              0                       # Number of loads inserted to the mem dependence unit. (Count)
system.cpu.MemDepUnit__1.insertedStores             0                       # Number of stores inserted to the mem dependence unit. (Count)
system.cpu.MemDepUnit__1.conflictingLoads            0                       # Number of conflicting loads. (Count)
system.cpu.MemDepUnit__1.conflictingStores            0                       # Number of conflicting stores. (Count)
system.cpu.MemDepUnit__2.insertedLoads              0                       # Number of loads inserted to the mem dependence unit. (Count)
system.cpu.MemDepUnit__2.insertedStores             0                       # Number of stores inserted to the mem dependence unit. (Count)
system.cpu.MemDepUnit__2.conflictingLoads            0                       # Number of conflicting loads. (Count)
system.cpu.MemDepUnit__2.conflictingStores            0                       # Number of conflicting stores. (Count)
system.cpu.MemDepUnit__3.insertedLoads              0                       # Number of loads inserted to the mem dependence unit. (Count)
system.cpu.MemDepUnit__3.insertedStores             0                       # Number of stores inserted to the mem dependence unit. (Count)
system.cpu.MemDepUnit__3.conflictingLoads            0                       # Number of conflicting loads. (Count)
system.cpu.MemDepUnit__3.conflictingStores            0                       # Number of conflicting stores. (Count)
system.cpu.branchPred.lookups                 2613280                       # Number of BP lookups (Count)
system.cpu.branchPred.condPredicted           2357192                       # Number of conditional branches predicted (Count)
system.cpu.branchPred.condIncorrect            227188                       # Number of conditional branches incorrect (Count)
system.cpu.branchPred.BTBLookups              1848076                       # Number of BTB lookups (Count)
system.cpu.branchPred.BTBHits                 1845937                       # Number of BTB hits (Count)
system.cpu.branchPred.BTBHitRatio            0.998843                       # BTB Hit Ratio (Ratio)
system.cpu.branchPred.RASUsed                   84035                       # Number of times the RAS was used to get a target. (Count)
system.cpu.branchPred.RASIncorrect                  1                       # Number of incorrect RAS predictions. (Count)
system.cpu.branchPred.indirectLookups            1319                       # Number of indirect predictor lookups. (Count)
system.cpu.branchPred.indirectHits                128                       # Number of indirect target hits. (Count)
system.cpu.branchPred.indirectMisses             1191                       # Number of indirect misses. (Count)
system.cpu.branchPred.indirectMispredicted          286                       # Number of mispredicted indirect branches. (Count)
system.cpu.commit.commitSquashedInsts         7807422                       # The number of squashed insts skipped by commit (Count)
system.cpu.commit.commitNonSpecStalls              63                       # The number of times commit has been forced to stall to communicate backwards (Count)
system.cpu.commit.branchMispredicts            226771                       # The number of times a branch was mispredicted (Count)
system.cpu.commit.numCommittedDist::samples      3977378                       # Number of insts commited each cycle (Count)
system.cpu.commit.numCommittedDist::mean     2.235997                       # Number of insts commited each cycle (Count)
system.cpu.commit.numCommittedDist::stdev     2.835391                       # Number of insts commited each cycle (Count)
system.cpu.commit.numCommittedDist::underflows            0      0.00%      0.00% # Number of insts commited each cycle (Count)
system.cpu.commit.numCommittedDist::0         1837509     46.20%     46.20% # Number of insts commited each cycle (Count)
system.cpu.commit.numCommittedDist::1          417712     10.50%     56.70% # Number of insts commited each cycle (Count)
system.cpu.commit.numCommittedDist::2          269570      6.78%     63.48% # Number of insts commited each cycle (Count)
system.cpu.commit.numCommittedDist::3          527419     13.26%     76.74% # Number of insts commited each cycle (Count)
system.cpu.commit.numCommittedDist::4          114049      2.87%     79.61% # Number of insts commited each cycle (Count)
system.cpu.commit.numCommittedDist::5           79609      2.00%     81.61% # Number of insts commited each cycle (Count)
system.cpu.commit.numCommittedDist::6          133734      3.36%     84.97% # Number of insts commited each cycle (Count)
system.cpu.commit.numCommittedDist::7           84556      2.13%     87.10% # Number of insts commited each cycle (Count)
system.cpu.commit.numCommittedDist::8          513220     12.90%    100.00% # Number of insts commited each cycle (Count)
system.cpu.commit.numCommittedDist::overflows            0      0.00%    100.00% # Number of insts commited each cycle (Count)
system.cpu.commit.numCommittedDist::min_value            0                       # Number of insts commited each cycle (Count)
system.cpu.commit.numCommittedDist::max_value            8                       # Number of insts commited each cycle (Count)
system.cpu.commit.numCommittedDist::total      3977378                       # Number of insts commited each cycle (Count)
system.cpu.commit.instsCommitted              4403247                       # Number of instructions committed (Count)
system.cpu.commit.opsCommitted                8893406                       # Number of ops (including micro ops) committed (Count)
system.cpu.commit.memRefs                     1429662                       # Number of memory references committed (Count)
system.cpu.commit.loads                        918770                       # Number of loads committed (Count)
system.cpu.commit.amos                              0                       # Number of atomic instructions committed (Count)
system.cpu.commit.membars                           0                       # Number of memory barriers committed (Count)
system.cpu.commit.branches                    1087048                       # Number of branches committed (Count)
system.cpu.commit.vectorInstructions                0                       # Number of committed Vector instructions. (Count)
system.cpu.commit.floating                       6178                       # Number of committed floating point instructions. (Count)
system.cpu.commit.integer                     8824401                       # Number of committed integer instructions. (Count)
system.cpu.commit.functionCalls                 36307                       # Number of function calls committed. (Count)
system.cpu.commit.committedInstType_0::No_OpClass        65386      0.74%      0.74% # Class of committed instruction (Count)
system.cpu.commit.committedInstType_0::IntAlu      7393738     83.14%     83.87% # Class of committed instruction (Count)
system.cpu.commit.committedInstType_0::IntMult           25      0.00%     83.87% # Class of committed instruction (Count)
system.cpu.commit.committedInstType_0::IntDiv         1315      0.01%     83.89% # Class of committed instruction (Count)
system.cpu.commit.committedInstType_0::FloatAdd          422      0.00%     83.89% # Class of committed instruction (Count)
system.cpu.commit.committedInstType_0::FloatCmp            0      0.00%     83.89% # Class of committed instruction (Count)
system.cpu.commit.committedInstType_0::FloatCvt          112      0.00%     83.89% # Class of committed instruction (Count)
system.cpu.commit.committedInstType_0::FloatMult            0      0.00%     83.89% # Class of committed instruction (Count)
system.cpu.commit.committedInstType_0::FloatMultAcc            0      0.00%     83.89% # Class of committed instruction (Count)
system.cpu.commit.committedInstType_0::FloatDiv            0      0.00%     83.89% # Class of committed instruction (Count)
system.cpu.commit.committedInstType_0::FloatMisc            0      0.00%     83.89% # Class of committed instruction (Count)
system.cpu.commit.committedInstType_0::FloatSqrt            0      0.00%     83.89% # Class of committed instruction (Count)
system.cpu.commit.committedInstType_0::SimdAdd          328      0.00%     83.90% # Class of committed instruction (Count)
system.cpu.commit.committedInstType_0::SimdAddAcc            0      0.00%     83.90% # Class of committed instruction (Count)
system.cpu.commit.committedInstType_0::SimdAlu          692      0.01%     83.91% # Class of committed instruction (Count)
system.cpu.commit.committedInstType_0::SimdCmp            0      0.00%     83.91% # Class of committed instruction (Count)
system.cpu.commit.committedInstType_0::SimdCvt          746      0.01%     83.91% # Class of committed instruction (Count)
system.cpu.commit.committedInstType_0::SimdMisc          895      0.01%     83.92% # Class of committed instruction (Count)
system.cpu.commit.committedInstType_0::SimdMult            0      0.00%     83.92% # Class of committed instruction (Count)
system.cpu.commit.committedInstType_0::SimdMultAcc            0      0.00%     83.92% # Class of committed instruction (Count)
system.cpu.commit.committedInstType_0::SimdShift           85      0.00%     83.92% # Class of committed instruction (Count)
system.cpu.commit.committedInstType_0::SimdShiftAcc            0      0.00%     83.92% # Class of committed instruction (Count)
system.cpu.commit.committedInstType_0::SimdDiv            0      0.00%     83.92% # Class of committed instruction (Count)
system.cpu.commit.committedInstType_0::SimdSqrt            0      0.00%     83.92% # Class of committed instruction (Count)
system.cpu.commit.committedInstType_0::SimdFloatAdd            0      0.00%     83.92% # Class of committed instruction (Count)
system.cpu.commit.committedInstType_0::SimdFloatAlu            0      0.00%     83.92% # Class of committed instruction (Count)
system.cpu.commit.committedInstType_0::SimdFloatCmp            0      0.00%     83.92% # Class of committed instruction (Count)
system.cpu.commit.committedInstType_0::SimdFloatCvt            0      0.00%     83.92% # Class of committed instruction (Count)
system.cpu.commit.committedInstType_0::SimdFloatDiv            0      0.00%     83.92% # Class of committed instruction (Count)
system.cpu.commit.committedInstType_0::SimdFloatMisc            0      0.00%     83.92% # Class of committed instruction (Count)
system.cpu.commit.committedInstType_0::SimdFloatMult            0      0.00%     83.92% # Class of committed instruction (Count)
system.cpu.commit.committedInstType_0::SimdFloatMultAcc            0      0.00%     83.92% # Class of committed instruction (Count)
system.cpu.commit.committedInstType_0::SimdFloatSqrt            0      0.00%     83.92% # Class of committed instruction (Count)
system.cpu.commit.committedInstType_0::SimdReduceAdd            0      0.00%     83.92% # Class of committed instruction (Count)
system.cpu.commit.committedInstType_0::SimdReduceAlu            0      0.00%     83.92% # Class of committed instruction (Count)
system.cpu.commit.committedInstType_0::SimdReduceCmp            0      0.00%     83.92% # Class of committed instruction (Count)
system.cpu.commit.committedInstType_0::SimdFloatReduceAdd            0      0.00%     83.92% # Class of committed instruction (Count)
system.cpu.commit.committedInstType_0::SimdFloatReduceCmp            0      0.00%     83.92% # Class of committed instruction (Count)
system.cpu.commit.committedInstType_0::SimdAes            0      0.00%     83.92% # Class of committed instruction (Count)
system.cpu.commit.committedInstType_0::SimdAesMix            0      0.00%     83.92% # Class of committed instruction (Count)
system.cpu.commit.committedInstType_0::SimdSha1Hash            0      0.00%     83.92% # Class of committed instruction (Count)
system.cpu.commit.committedInstType_0::SimdSha1Hash2            0      0.00%     83.92% # Class of committed instruction (Count)
system.cpu.commit.committedInstType_0::SimdSha256Hash            0      0.00%     83.92% # Class of committed instruction (Count)
system.cpu.commit.committedInstType_0::SimdSha256Hash2            0      0.00%     83.92% # Class of committed instruction (Count)
system.cpu.commit.committedInstType_0::SimdShaSigma2            0      0.00%     83.92% # Class of committed instruction (Count)
system.cpu.commit.committedInstType_0::SimdShaSigma3            0      0.00%     83.92% # Class of committed instruction (Count)
system.cpu.commit.committedInstType_0::SimdPredAlu            0      0.00%     83.92% # Class of committed instruction (Count)
system.cpu.commit.committedInstType_0::MemRead       917740     10.32%     94.24% # Class of committed instruction (Count)
system.cpu.commit.committedInstType_0::MemWrite       509327      5.73%     99.97% # Class of committed instruction (Count)
system.cpu.commit.committedInstType_0::FloatMemRead         1030      0.01%     99.98% # Class of committed instruction (Count)
system.cpu.commit.committedInstType_0::FloatMemWrite         1565      0.02%    100.00% # Class of committed instruction (Count)
system.cpu.commit.committedInstType_0::IprAccess            0      0.00%    100.00% # Class of committed instruction (Count)
system.cpu.commit.committedInstType_0::InstPrefetch            0      0.00%    100.00% # Class of committed instruction (Count)
system.cpu.commit.committedInstType_0::total      8893406                       # Class of committed instruction (Count)
system.cpu.commit.commitEligibleSamples        513220                       # number cycles where commit BW limit reached (Cycle)
system.cpu.dcache.demandHits::cpu.data        1803895                       # number of demand (read+write) hits (Count)
system.cpu.dcache.demandHits::total           1803895                       # number of demand (read+write) hits (Count)
system.cpu.dcache.overallHits::cpu.data       1803895                       # number of overall hits (Count)
system.cpu.dcache.overallHits::total          1803895                       # number of overall hits (Count)
system.cpu.dcache.demandMisses::cpu.data        12009                       # number of demand (read+write) misses (Count)
system.cpu.dcache.demandMisses::total           12009                       # number of demand (read+write) misses (Count)
system.cpu.dcache.overallMisses::cpu.data        12009                       # number of overall misses (Count)
system.cpu.dcache.overallMisses::total          12009                       # number of overall misses (Count)
system.cpu.dcache.demandMissLatency::cpu.data    617995000                       # number of demand (read+write) miss ticks (Tick)
system.cpu.dcache.demandMissLatency::total    617995000                       # number of demand (read+write) miss ticks (Tick)
system.cpu.dcache.overallMissLatency::cpu.data    617995000                       # number of overall miss ticks (Tick)
system.cpu.dcache.overallMissLatency::total    617995000                       # number of overall miss ticks (Tick)
system.cpu.dcache.demandAccesses::cpu.data      1815904                       # number of demand (read+write) accesses (Count)
system.cpu.dcache.demandAccesses::total       1815904                       # number of demand (read+write) accesses (Count)
system.cpu.dcache.overallAccesses::cpu.data      1815904                       # number of overall (read+write) accesses (Count)
system.cpu.dcache.overallAccesses::total      1815904                       # number of overall (read+write) accesses (Count)
system.cpu.dcache.demandMissRate::cpu.data     0.006613                       # miss rate for demand accesses (Ratio)
system.cpu.dcache.demandMissRate::total      0.006613                       # miss rate for demand accesses (Ratio)
system.cpu.dcache.overallMissRate::cpu.data     0.006613                       # miss rate for overall accesses (Ratio)
system.cpu.dcache.overallMissRate::total     0.006613                       # miss rate for overall accesses (Ratio)
system.cpu.dcache.demandAvgMissLatency::cpu.data 51460.987593                       # average overall miss latency ((Cycle/Count))
system.cpu.dcache.demandAvgMissLatency::total 51460.987593                       # average overall miss latency ((Cycle/Count))
system.cpu.dcache.overallAvgMissLatency::cpu.data 51460.987593                       # average overall miss latency ((Cycle/Count))
system.cpu.dcache.overallAvgMissLatency::total 51460.987593                       # average overall miss latency ((Cycle/Count))
system.cpu.dcache.blockedCycles::no_mshrs        12650                       # number of cycles access was blocked (Cycle)
system.cpu.dcache.blockedCycles::no_targets            0                       # number of cycles access was blocked (Cycle)
system.cpu.dcache.blockedCauses::no_mshrs          267                       # number of times access was blocked (Count)
system.cpu.dcache.blockedCauses::no_targets            0                       # number of times access was blocked (Count)
system.cpu.dcache.avgBlocked::no_mshrs      47.378277                       # average number of cycles each access was blocked ((Cycle/Count))
system.cpu.dcache.avgBlocked::no_targets          nan                       # average number of cycles each access was blocked ((Cycle/Count))
system.cpu.dcache.demandMshrHits::cpu.data         9388                       # number of demand (read+write) MSHR hits (Count)
system.cpu.dcache.demandMshrHits::total          9388                       # number of demand (read+write) MSHR hits (Count)
system.cpu.dcache.overallMshrHits::cpu.data         9388                       # number of overall MSHR hits (Count)
system.cpu.dcache.overallMshrHits::total         9388                       # number of overall MSHR hits (Count)
system.cpu.dcache.demandMshrMisses::cpu.data         2621                       # number of demand (read+write) MSHR misses (Count)
system.cpu.dcache.demandMshrMisses::total         2621                       # number of demand (read+write) MSHR misses (Count)
system.cpu.dcache.overallMshrMisses::cpu.data         2621                       # number of overall MSHR misses (Count)
system.cpu.dcache.overallMshrMisses::total         2621                       # number of overall MSHR misses (Count)
system.cpu.dcache.demandMshrMissLatency::cpu.data    164427500                       # number of demand (read+write) MSHR miss ticks (Tick)
system.cpu.dcache.demandMshrMissLatency::total    164427500                       # number of demand (read+write) MSHR miss ticks (Tick)
system.cpu.dcache.overallMshrMissLatency::cpu.data    164427500                       # number of overall MSHR miss ticks (Tick)
system.cpu.dcache.overallMshrMissLatency::total    164427500                       # number of overall MSHR miss ticks (Tick)
system.cpu.dcache.demandMshrMissRate::cpu.data     0.001443                       # mshr miss ratio for demand accesses (Ratio)
system.cpu.dcache.demandMshrMissRate::total     0.001443                       # mshr miss ratio for demand accesses (Ratio)
system.cpu.dcache.overallMshrMissRate::cpu.data     0.001443                       # mshr miss ratio for overall accesses (Ratio)
system.cpu.dcache.overallMshrMissRate::total     0.001443                       # mshr miss ratio for overall accesses (Ratio)
system.cpu.dcache.demandAvgMshrMissLatency::cpu.data 62734.643266                       # average overall mshr miss latency ((Cycle/Count))
system.cpu.dcache.demandAvgMshrMissLatency::total 62734.643266                       # average overall mshr miss latency ((Cycle/Count))
system.cpu.dcache.overallAvgMshrMissLatency::cpu.data 62734.643266                       # average overall mshr miss latency ((Cycle/Count))
system.cpu.dcache.overallAvgMshrMissLatency::total 62734.643266                       # average overall mshr miss latency ((Cycle/Count))
system.cpu.dcache.replacements                      0                       # number of replacements (Count)
system.cpu.dcache.ReadReq.hits::cpu.data      1293584                       # number of ReadReq hits (Count)
system.cpu.dcache.ReadReq.hits::total         1293584                       # number of ReadReq hits (Count)
system.cpu.dcache.ReadReq.misses::cpu.data        11428                       # number of ReadReq misses (Count)
system.cpu.dcache.ReadReq.misses::total         11428                       # number of ReadReq misses (Count)
system.cpu.dcache.ReadReq.missLatency::cpu.data    581096500                       # number of ReadReq miss ticks (Tick)
system.cpu.dcache.ReadReq.missLatency::total    581096500                       # number of ReadReq miss ticks (Tick)
system.cpu.dcache.ReadReq.accesses::cpu.data      1305012                       # number of ReadReq accesses(hits+misses) (Count)
system.cpu.dcache.ReadReq.accesses::total      1305012                       # number of ReadReq accesses(hits+misses) (Count)
system.cpu.dcache.ReadReq.missRate::cpu.data     0.008757                       # miss rate for ReadReq accesses (Ratio)
system.cpu.dcache.ReadReq.missRate::total     0.008757                       # miss rate for ReadReq accesses (Ratio)
system.cpu.dcache.ReadReq.avgMissLatency::cpu.data 50848.486174                       # average ReadReq miss latency ((Tick/Count))
system.cpu.dcache.ReadReq.avgMissLatency::total 50848.486174                       # average ReadReq miss latency ((Tick/Count))
system.cpu.dcache.ReadReq.mshrHits::cpu.data         9381                       # number of ReadReq MSHR hits (Count)
system.cpu.dcache.ReadReq.mshrHits::total         9381                       # number of ReadReq MSHR hits (Count)
system.cpu.dcache.ReadReq.mshrMisses::cpu.data         2047                       # number of ReadReq MSHR misses (Count)
system.cpu.dcache.ReadReq.mshrMisses::total         2047                       # number of ReadReq MSHR misses (Count)
system.cpu.dcache.ReadReq.mshrMissLatency::cpu.data    128474000                       # number of ReadReq MSHR miss ticks (Tick)
system.cpu.dcache.ReadReq.mshrMissLatency::total    128474000                       # number of ReadReq MSHR miss ticks (Tick)
system.cpu.dcache.ReadReq.mshrMissRate::cpu.data     0.001569                       # mshr miss rate for ReadReq accesses (Ratio)
system.cpu.dcache.ReadReq.mshrMissRate::total     0.001569                       # mshr miss rate for ReadReq accesses (Ratio)
system.cpu.dcache.ReadReq.avgMshrMissLatency::cpu.data 62762.090865                       # average ReadReq mshr miss latency ((Tick/Count))
system.cpu.dcache.ReadReq.avgMshrMissLatency::total 62762.090865                       # average ReadReq mshr miss latency ((Tick/Count))
system.cpu.dcache.WriteReq.hits::cpu.data       510311                       # number of WriteReq hits (Count)
system.cpu.dcache.WriteReq.hits::total         510311                       # number of WriteReq hits (Count)
system.cpu.dcache.WriteReq.misses::cpu.data          581                       # number of WriteReq misses (Count)
system.cpu.dcache.WriteReq.misses::total          581                       # number of WriteReq misses (Count)
system.cpu.dcache.WriteReq.missLatency::cpu.data     36898500                       # number of WriteReq miss ticks (Tick)
system.cpu.dcache.WriteReq.missLatency::total     36898500                       # number of WriteReq miss ticks (Tick)
system.cpu.dcache.WriteReq.accesses::cpu.data       510892                       # number of WriteReq accesses(hits+misses) (Count)
system.cpu.dcache.WriteReq.accesses::total       510892                       # number of WriteReq accesses(hits+misses) (Count)
system.cpu.dcache.WriteReq.missRate::cpu.data     0.001137                       # miss rate for WriteReq accesses (Ratio)
system.cpu.dcache.WriteReq.missRate::total     0.001137                       # miss rate for WriteReq accesses (Ratio)
system.cpu.dcache.WriteReq.avgMissLatency::cpu.data 63508.605852                       # average WriteReq miss latency ((Tick/Count))
system.cpu.dcache.WriteReq.avgMissLatency::total 63508.605852                       # average WriteReq miss latency ((Tick/Count))
system.cpu.dcache.WriteReq.mshrHits::cpu.data            7                       # number of WriteReq MSHR hits (Count)
system.cpu.dcache.WriteReq.mshrHits::total            7                       # number of WriteReq MSHR hits (Count)
system.cpu.dcache.WriteReq.mshrMisses::cpu.data          574                       # number of WriteReq MSHR misses (Count)
system.cpu.dcache.WriteReq.mshrMisses::total          574                       # number of WriteReq MSHR misses (Count)
system.cpu.dcache.WriteReq.mshrMissLatency::cpu.data     35953500                       # number of WriteReq MSHR miss ticks (Tick)
system.cpu.dcache.WriteReq.mshrMissLatency::total     35953500                       # number of WriteReq MSHR miss ticks (Tick)
system.cpu.dcache.WriteReq.mshrMissRate::cpu.data     0.001124                       # mshr miss rate for WriteReq accesses (Ratio)
system.cpu.dcache.WriteReq.mshrMissRate::total     0.001124                       # mshr miss rate for WriteReq accesses (Ratio)
system.cpu.dcache.WriteReq.avgMshrMissLatency::cpu.data 62636.759582                       # average WriteReq mshr miss latency ((Tick/Count))
system.cpu.dcache.WriteReq.avgMshrMissLatency::total 62636.759582                       # average WriteReq mshr miss latency ((Tick/Count))
system.cpu.dcache.power_state.pwrStateResidencyTicks::UNDEFINED   2570290000                       # Cumulative time (in ticks) in various power states (Tick)
system.cpu.dcache.tags.tagsInUse          2518.605115                       # Average ticks per tags in use ((Tick/Count))
system.cpu.dcache.tags.totalRefs              1806516                       # Total number of references to valid blocks. (Count)
system.cpu.dcache.tags.sampledRefs               2621                       # Sample count of references to valid blocks. (Count)
system.cpu.dcache.tags.avgRefs             689.246852                       # Average number of references to valid blocks. ((Count/Count))
system.cpu.dcache.tags.warmupTick              132500                       # The tick when the warmup percentage was hit. (Tick)
system.cpu.dcache.tags.occupancies::cpu.data  2518.605115                       # Average occupied blocks per tick, per requestor ((Count/Tick))
system.cpu.dcache.tags.avgOccs::cpu.data     0.307447                       # Average percentage of cache occupancy ((Ratio/Tick))
system.cpu.dcache.tags.avgOccs::total        0.307447                       # Average percentage of cache occupancy ((Ratio/Tick))
system.cpu.dcache.tags.occupanciesTaskId::1024         2621                       # Occupied blocks per task id (Count)
system.cpu.dcache.tags.ageTaskId_1024::0            7                       # Occupied blocks per task id, per block age (Count)
system.cpu.dcache.tags.ageTaskId_1024::3         2614                       # Occupied blocks per task id, per block age (Count)
system.cpu.dcache.tags.ratioOccsTaskId::1024     0.319946                       # Ratio of occupied blocks and all blocks, per task id (Ratio)
system.cpu.dcache.tags.tagAccesses           14529853                       # Number of tag accesses (Count)
system.cpu.dcache.tags.dataAccesses          14529853                       # Number of data accesses (Count)
system.cpu.dcache.tags.power_state.pwrStateResidencyTicks::UNDEFINED   2570290000                       # Cumulative time (in ticks) in various power states (Tick)
system.cpu.decode.idleCycles                   683036                       # Number of cycles decode is idle (Cycle)
system.cpu.decode.blockedCycles                997908                       # Number of cycles decode is blocked (Cycle)
system.cpu.decode.runCycles                   2849557                       # Number of cycles decode is running (Cycle)
system.cpu.decode.unblockCycles                306988                       # Number of cycles decode is unblocking (Cycle)
system.cpu.decode.squashCycles                 226960                       # Number of cycles decode is squashing (Cycle)
system.cpu.decode.branchResolved              1718775                       # Number of times decode resolved a branch (Count)
system.cpu.decode.branchMispred                   596                       # Number of times decode detected a branch misprediction (Count)
system.cpu.decode.decodedInsts               20475545                       # Number of instructions handled by decode (Count)
system.cpu.decode.squashedInsts                  2710                       # Number of squashed instructions handled by decode (Count)
system.cpu.dtb_walker_cache.blockedCycles::no_mshrs            0                       # number of cycles access was blocked (Cycle)
system.cpu.dtb_walker_cache.blockedCycles::no_targets            0                       # number of cycles access was blocked (Cycle)
system.cpu.dtb_walker_cache.blockedCauses::no_mshrs            0                       # number of times access was blocked (Count)
system.cpu.dtb_walker_cache.blockedCauses::no_targets            0                       # number of times access was blocked (Count)
system.cpu.dtb_walker_cache.avgBlocked::no_mshrs          nan                       # average number of cycles each access was blocked ((Cycle/Count))
system.cpu.dtb_walker_cache.avgBlocked::no_targets          nan                       # average number of cycles each access was blocked ((Cycle/Count))
system.cpu.dtb_walker_cache.replacements            0                       # number of replacements (Count)
system.cpu.dtb_walker_cache.power_state.pwrStateResidencyTicks::UNDEFINED   2570290000                       # Cumulative time (in ticks) in various power states (Tick)
system.cpu.dtb_walker_cache.tags.tagsInUse            0                       # Average ticks per tags in use ((Tick/Count))
system.cpu.dtb_walker_cache.tags.totalRefs            0                       # Total number of references to valid blocks. (Count)
system.cpu.dtb_walker_cache.tags.sampledRefs            0                       # Sample count of references to valid blocks. (Count)
system.cpu.dtb_walker_cache.tags.avgRefs          nan                       # Average number of references to valid blocks. ((Count/Count))
system.cpu.dtb_walker_cache.tags.warmupTick            0                       # The tick when the warmup percentage was hit. (Tick)
system.cpu.dtb_walker_cache.tags.tagAccesses            0                       # Number of tag accesses (Count)
system.cpu.dtb_walker_cache.tags.dataAccesses            0                       # Number of data accesses (Count)
system.cpu.dtb_walker_cache.tags.power_state.pwrStateResidencyTicks::UNDEFINED   2570290000                       # Cumulative time (in ticks) in various power states (Tick)
system.cpu.fetch.icacheStallCycles             657059                       # Number of cycles fetch is stalled on an Icache miss (Cycle)
system.cpu.fetch.insts                       10954765                       # Number of instructions fetch has processed (Count)
system.cpu.fetch.branches                     2613280                       # Number of branches that fetch encountered (Count)
system.cpu.fetch.predictedBranches            1930100                       # Number of branches that fetch has predicted taken (Count)
system.cpu.fetch.cycles                       4178167                       # Number of cycles fetch has run and was not squashing or blocked (Cycle)
system.cpu.fetch.squashCycles                  455084                       # Number of cycles fetch has spent squashing (Cycle)
system.cpu.fetch.miscStallCycles                  201                       # Number of cycles fetch has spent waiting on interrupts, or bad addresses, or out of MSHRs (Cycle)
system.cpu.fetch.pendingTrapStallCycles          1469                       # Number of stall cycles due to pending traps (Cycle)
system.cpu.fetch.pendingQuiesceStallCycles            2                       # Number of stall cycles due to pending quiesce instructions (Cycle)
system.cpu.fetch.icacheWaitRetryStallCycles            9                       # Number of stall cycles due to full MSHR (Cycle)
system.cpu.fetch.cacheLines                    587299                       # Number of cache lines fetched (Count)
system.cpu.fetch.icacheSquashes                 26084                       # Number of outstanding Icache misses that were squashed (Count)
system.cpu.fetch.nisnDist::samples            5064449                       # Number of instructions fetched each cycle (Total) (Count)
system.cpu.fetch.nisnDist::mean              4.338603                       # Number of instructions fetched each cycle (Total) (Count)
system.cpu.fetch.nisnDist::stdev             3.428812                       # Number of instructions fetched each cycle (Total) (Count)
system.cpu.fetch.nisnDist::underflows               0      0.00%      0.00% # Number of instructions fetched each cycle (Total) (Count)
system.cpu.fetch.nisnDist::0                  1127029     22.25%     22.25% # Number of instructions fetched each cycle (Total) (Count)
system.cpu.fetch.nisnDist::1                   783050     15.46%     37.72% # Number of instructions fetched each cycle (Total) (Count)
system.cpu.fetch.nisnDist::2                   228601      4.51%     42.23% # Number of instructions fetched each cycle (Total) (Count)
system.cpu.fetch.nisnDist::3                    77373      1.53%     43.76% # Number of instructions fetched each cycle (Total) (Count)
system.cpu.fetch.nisnDist::4                    37650      0.74%     44.50% # Number of instructions fetched each cycle (Total) (Count)
system.cpu.fetch.nisnDist::5                   664835     13.13%     57.63% # Number of instructions fetched each cycle (Total) (Count)
system.cpu.fetch.nisnDist::6                    21798      0.43%     58.06% # Number of instructions fetched each cycle (Total) (Count)
system.cpu.fetch.nisnDist::7                    98204      1.94%     60.00% # Number of instructions fetched each cycle (Total) (Count)
system.cpu.fetch.nisnDist::8                  2025909     40.00%    100.00% # Number of instructions fetched each cycle (Total) (Count)
system.cpu.fetch.nisnDist::overflows                0      0.00%    100.00% # Number of instructions fetched each cycle (Total) (Count)
system.cpu.fetch.nisnDist::min_value                0                       # Number of instructions fetched each cycle (Total) (Count)
system.cpu.fetch.nisnDist::max_value                8                       # Number of instructions fetched each cycle (Total) (Count)
system.cpu.fetch.nisnDist::total              5064449                       # Number of instructions fetched each cycle (Total) (Count)
system.cpu.fetch.branchRate                  0.508363                       # Number of branch fetches per cycle (Ratio)
system.cpu.fetch.rate                        2.131036                       # Number of inst fetches per cycle ((Count/Cycle))
system.cpu.icache.demandHits::cpu.inst         585475                       # number of demand (read+write) hits (Count)
system.cpu.icache.demandHits::total            585475                       # number of demand (read+write) hits (Count)
system.cpu.icache.overallHits::cpu.inst        585475                       # number of overall hits (Count)
system.cpu.icache.overallHits::total           585475                       # number of overall hits (Count)
system.cpu.icache.demandMisses::cpu.inst         1824                       # number of demand (read+write) misses (Count)
system.cpu.icache.demandMisses::total            1824                       # number of demand (read+write) misses (Count)
system.cpu.icache.overallMisses::cpu.inst         1824                       # number of overall misses (Count)
system.cpu.icache.overallMisses::total           1824                       # number of overall misses (Count)
system.cpu.icache.demandMissLatency::cpu.inst    102960999                       # number of demand (read+write) miss ticks (Tick)
system.cpu.icache.demandMissLatency::total    102960999                       # number of demand (read+write) miss ticks (Tick)
system.cpu.icache.overallMissLatency::cpu.inst    102960999                       # number of overall miss ticks (Tick)
system.cpu.icache.overallMissLatency::total    102960999                       # number of overall miss ticks (Tick)
system.cpu.icache.demandAccesses::cpu.inst       587299                       # number of demand (read+write) accesses (Count)
system.cpu.icache.demandAccesses::total        587299                       # number of demand (read+write) accesses (Count)
system.cpu.icache.overallAccesses::cpu.inst       587299                       # number of overall (read+write) accesses (Count)
system.cpu.icache.overallAccesses::total       587299                       # number of overall (read+write) accesses (Count)
system.cpu.icache.demandMissRate::cpu.inst     0.003106                       # miss rate for demand accesses (Ratio)
system.cpu.icache.demandMissRate::total      0.003106                       # miss rate for demand accesses (Ratio)
system.cpu.icache.overallMissRate::cpu.inst     0.003106                       # miss rate for overall accesses (Ratio)
system.cpu.icache.overallMissRate::total     0.003106                       # miss rate for overall accesses (Ratio)
system.cpu.icache.demandAvgMissLatency::cpu.inst 56447.916118                       # average overall miss latency ((Cycle/Count))
system.cpu.icache.demandAvgMissLatency::total 56447.916118                       # average overall miss latency ((Cycle/Count))
system.cpu.icache.overallAvgMissLatency::cpu.inst 56447.916118                       # average overall miss latency ((Cycle/Count))
system.cpu.icache.overallAvgMissLatency::total 56447.916118                       # average overall miss latency ((Cycle/Count))
system.cpu.icache.blockedCycles::no_mshrs          393                       # number of cycles access was blocked (Cycle)
system.cpu.icache.blockedCycles::no_targets            0                       # number of cycles access was blocked (Cycle)
system.cpu.icache.blockedCauses::no_mshrs            4                       # number of times access was blocked (Count)
system.cpu.icache.blockedCauses::no_targets            0                       # number of times access was blocked (Count)
system.cpu.icache.avgBlocked::no_mshrs      98.250000                       # average number of cycles each access was blocked ((Cycle/Count))
system.cpu.icache.avgBlocked::no_targets          nan                       # average number of cycles each access was blocked ((Cycle/Count))
system.cpu.icache.writebacks::writebacks          899                       # number of writebacks (Count)
system.cpu.icache.writebacks::total               899                       # number of writebacks (Count)
system.cpu.icache.demandMshrHits::cpu.inst          418                       # number of demand (read+write) MSHR hits (Count)
system.cpu.icache.demandMshrHits::total           418                       # number of demand (read+write) MSHR hits (Count)
system.cpu.icache.overallMshrHits::cpu.inst          418                       # number of overall MSHR hits (Count)
system.cpu.icache.overallMshrHits::total          418                       # number of overall MSHR hits (Count)
system.cpu.icache.demandMshrMisses::cpu.inst         1406                       # number of demand (read+write) MSHR misses (Count)
system.cpu.icache.demandMshrMisses::total         1406                       # number of demand (read+write) MSHR misses (Count)
system.cpu.icache.overallMshrMisses::cpu.inst         1406                       # number of overall MSHR misses (Count)
system.cpu.icache.overallMshrMisses::total         1406                       # number of overall MSHR misses (Count)
system.cpu.icache.demandMshrMissLatency::cpu.inst     81721500                       # number of demand (read+write) MSHR miss ticks (Tick)
system.cpu.icache.demandMshrMissLatency::total     81721500                       # number of demand (read+write) MSHR miss ticks (Tick)
system.cpu.icache.overallMshrMissLatency::cpu.inst     81721500                       # number of overall MSHR miss ticks (Tick)
system.cpu.icache.overallMshrMissLatency::total     81721500                       # number of overall MSHR miss ticks (Tick)
system.cpu.icache.demandMshrMissRate::cpu.inst     0.002394                       # mshr miss ratio for demand accesses (Ratio)
system.cpu.icache.demandMshrMissRate::total     0.002394                       # mshr miss ratio for demand accesses (Ratio)
system.cpu.icache.overallMshrMissRate::cpu.inst     0.002394                       # mshr miss ratio for overall accesses (Ratio)
system.cpu.icache.overallMshrMissRate::total     0.002394                       # mshr miss ratio for overall accesses (Ratio)
system.cpu.icache.demandAvgMshrMissLatency::cpu.inst 58123.399716                       # average overall mshr miss latency ((Cycle/Count))
system.cpu.icache.demandAvgMshrMissLatency::total 58123.399716                       # average overall mshr miss latency ((Cycle/Count))
system.cpu.icache.overallAvgMshrMissLatency::cpu.inst 58123.399716                       # average overall mshr miss latency ((Cycle/Count))
system.cpu.icache.overallAvgMshrMissLatency::total 58123.399716                       # average overall mshr miss latency ((Cycle/Count))
system.cpu.icache.replacements                    899                       # number of replacements (Count)
system.cpu.icache.ReadReq.hits::cpu.inst       585475                       # number of ReadReq hits (Count)
system.cpu.icache.ReadReq.hits::total          585475                       # number of ReadReq hits (Count)
system.cpu.icache.ReadReq.misses::cpu.inst         1824                       # number of ReadReq misses (Count)
system.cpu.icache.ReadReq.misses::total          1824                       # number of ReadReq misses (Count)
system.cpu.icache.ReadReq.missLatency::cpu.inst    102960999                       # number of ReadReq miss ticks (Tick)
system.cpu.icache.ReadReq.missLatency::total    102960999                       # number of ReadReq miss ticks (Tick)
system.cpu.icache.ReadReq.accesses::cpu.inst       587299                       # number of ReadReq accesses(hits+misses) (Count)
system.cpu.icache.ReadReq.accesses::total       587299                       # number of ReadReq accesses(hits+misses) (Count)
system.cpu.icache.ReadReq.missRate::cpu.inst     0.003106                       # miss rate for ReadReq accesses (Ratio)
system.cpu.icache.ReadReq.missRate::total     0.003106                       # miss rate for ReadReq accesses (Ratio)
system.cpu.icache.ReadReq.avgMissLatency::cpu.inst 56447.916118                       # average ReadReq miss latency ((Tick/Count))
system.cpu.icache.ReadReq.avgMissLatency::total 56447.916118                       # average ReadReq miss latency ((Tick/Count))
system.cpu.icache.ReadReq.mshrHits::cpu.inst          418                       # number of ReadReq MSHR hits (Count)
system.cpu.icache.ReadReq.mshrHits::total          418                       # number of ReadReq MSHR hits (Count)
system.cpu.icache.ReadReq.mshrMisses::cpu.inst         1406                       # number of ReadReq MSHR misses (Count)
system.cpu.icache.ReadReq.mshrMisses::total         1406                       # number of ReadReq MSHR misses (Count)
system.cpu.icache.ReadReq.mshrMissLatency::cpu.inst     81721500                       # number of ReadReq MSHR miss ticks (Tick)
system.cpu.icache.ReadReq.mshrMissLatency::total     81721500                       # number of ReadReq MSHR miss ticks (Tick)
system.cpu.icache.ReadReq.mshrMissRate::cpu.inst     0.002394                       # mshr miss rate for ReadReq accesses (Ratio)
system.cpu.icache.ReadReq.mshrMissRate::total     0.002394                       # mshr miss rate for ReadReq accesses (Ratio)
system.cpu.icache.ReadReq.avgMshrMissLatency::cpu.inst 58123.399716                       # average ReadReq mshr miss latency ((Tick/Count))
system.cpu.icache.ReadReq.avgMshrMissLatency::total 58123.399716                       # average ReadReq mshr miss latency ((Tick/Count))
system.cpu.icache.power_state.pwrStateResidencyTicks::UNDEFINED   2570290000                       # Cumulative time (in ticks) in various power states (Tick)
system.cpu.icache.tags.tagsInUse           500.726869                       # Average ticks per tags in use ((Tick/Count))
system.cpu.icache.tags.totalRefs               586880                       # Total number of references to valid blocks. (Count)
system.cpu.icache.tags.sampledRefs               1405                       # Sample count of references to valid blocks. (Count)
system.cpu.icache.tags.avgRefs             417.708185                       # Average number of references to valid blocks. ((Count/Count))
system.cpu.icache.tags.warmupTick               62500                       # The tick when the warmup percentage was hit. (Tick)
system.cpu.icache.tags.occupancies::cpu.inst   500.726869                       # Average occupied blocks per tick, per requestor ((Count/Tick))
system.cpu.icache.tags.avgOccs::cpu.inst     0.977982                       # Average percentage of cache occupancy ((Ratio/Tick))
system.cpu.icache.tags.avgOccs::total        0.977982                       # Average percentage of cache occupancy ((Ratio/Tick))
system.cpu.icache.tags.occupanciesTaskId::1024          506                       # Occupied blocks per task id (Count)
system.cpu.icache.tags.ageTaskId_1024::0           94                       # Occupied blocks per task id, per block age (Count)
system.cpu.icache.tags.ageTaskId_1024::3          412                       # Occupied blocks per task id, per block age (Count)
system.cpu.icache.tags.ratioOccsTaskId::1024     0.988281                       # Ratio of occupied blocks and all blocks, per task id (Ratio)
system.cpu.icache.tags.tagAccesses            1176003                       # Number of tag accesses (Count)
system.cpu.icache.tags.dataAccesses           1176003                       # Number of data accesses (Count)
system.cpu.icache.tags.power_state.pwrStateResidencyTicks::UNDEFINED   2570290000                       # Cumulative time (in ticks) in various power states (Tick)
system.cpu.iew.idleCycles                           0                       # Number of cycles IEW is idle (Cycle)
system.cpu.iew.squashCycles                    226960                       # Number of cycles IEW is squashing (Cycle)
system.cpu.iew.blockCycles                     916460                       # Number of cycles IEW is blocking (Cycle)
system.cpu.iew.unblockCycles                     5313                       # Number of cycles IEW is unblocking (Cycle)
system.cpu.iew.dispatchedInsts               16702282                       # Number of instructions dispatched to IQ (Count)
system.cpu.iew.dispSquashedInsts                 4205                       # Number of squashed instructions skipped by dispatch (Count)
system.cpu.iew.dispLoadInsts                  1660054                       # Number of dispatched load instructions (Count)
system.cpu.iew.dispStoreInsts                 1031626                       # Number of dispatched store instructions (Count)
system.cpu.iew.dispNonSpecInsts                    65                       # Number of dispatched non-speculative instructions (Count)
system.cpu.iew.iqFullEvents                       746                       # Number of times the IQ has become full, causing a stall (Count)
system.cpu.iew.lsqFullEvents                     4224                       # Number of times the LSQ has become full, causing a stall (Count)
system.cpu.iew.memOrderViolationEvents             61                       # Number of memory order violations (Count)
system.cpu.iew.predictedTakenIncorrect         172148                       # Number of branches that were predicted taken incorrectly (Count)
system.cpu.iew.predictedNotTakenIncorrect       113791                       # Number of branches that were predicted not taken incorrectly (Count)
system.cpu.iew.branchMispredicts               285939                       # Number of branch mispredicts detected at execute (Count)
system.cpu.iew.instsToCommit                 13836216                       # Cumulative count of insts sent to commit (Count)
system.cpu.iew.writebackCount                13744167                       # Cumulative count of insts written-back (Count)
system.cpu.iew.producerInst                  10049707                       # Number of instructions producing a value (Count)
system.cpu.iew.consumerInst                  13499558                       # Number of instructions consuming a value (Count)
system.cpu.iew.wbRate                        2.673660                       # Insts written-back per cycle ((Count/Cycle))
system.cpu.iew.wbFanout                      0.744447                       # Average fanout of values written-back ((Count/Count))
system.cpu.interrupts.clk_domain.clock           8000                       # Clock period in ticks (Tick)
system.cpu.itb_walker_cache.blockedCycles::no_mshrs            0                       # number of cycles access was blocked (Cycle)
system.cpu.itb_walker_cache.blockedCycles::no_targets            0                       # number of cycles access was blocked (Cycle)
system.cpu.itb_walker_cache.blockedCauses::no_mshrs            0                       # number of times access was blocked (Count)
system.cpu.itb_walker_cache.blockedCauses::no_targets            0                       # number of times access was blocked (Count)
system.cpu.itb_walker_cache.avgBlocked::no_mshrs          nan                       # average number of cycles each access was blocked ((Cycle/Count))
system.cpu.itb_walker_cache.avgBlocked::no_targets          nan                       # average number of cycles each access was blocked ((Cycle/Count))
system.cpu.itb_walker_cache.replacements            0                       # number of replacements (Count)
system.cpu.itb_walker_cache.power_state.pwrStateResidencyTicks::UNDEFINED   2570290000                       # Cumulative time (in ticks) in various power states (Tick)
system.cpu.itb_walker_cache.tags.tagsInUse            0                       # Average ticks per tags in use ((Tick/Count))
system.cpu.itb_walker_cache.tags.totalRefs            0                       # Total number of references to valid blocks. (Count)
system.cpu.itb_walker_cache.tags.sampledRefs            0                       # Sample count of references to valid blocks. (Count)
system.cpu.itb_walker_cache.tags.avgRefs          nan                       # Average number of references to valid blocks. ((Count/Count))
system.cpu.itb_walker_cache.tags.warmupTick            0                       # The tick when the warmup percentage was hit. (Tick)
system.cpu.itb_walker_cache.tags.tagAccesses            0                       # Number of tag accesses (Count)
system.cpu.itb_walker_cache.tags.dataAccesses            0                       # Number of data accesses (Count)
system.cpu.itb_walker_cache.tags.power_state.pwrStateResidencyTicks::UNDEFINED   2570290000                       # Cumulative time (in ticks) in various power states (Tick)
system.cpu.lsq0.forwLoads                       10511                       # Number of loads that had data forwarded from stores (Count)
system.cpu.lsq0.squashedLoads                  741284                       # Number of loads squashed (Count)
system.cpu.lsq0.ignoredResponses                   33                       # Number of memory responses ignored because the instruction is squashed (Count)
system.cpu.lsq0.memOrderViolation                  61                       # Number of memory ordering violations (Count)
system.cpu.lsq0.squashedStores                 520734                       # Number of stores squashed (Count)
system.cpu.lsq0.rescheduledLoads                    1                       # Number of loads that were rescheduled (Count)
system.cpu.lsq0.blockedByCache                    198                       # Number of times an access to memory failed due to the cache being blocked (Count)
system.cpu.lsq0.loadToUse::samples             918770                       # Distribution of cycle latency between the first time a load is issued and its completion (Unspecified)
system.cpu.lsq0.loadToUse::mean              4.074635                       # Distribution of cycle latency between the first time a load is issued and its completion (Unspecified)
system.cpu.lsq0.loadToUse::stdev            10.264511                       # Distribution of cycle latency between the first time a load is issued and its completion (Unspecified)
system.cpu.lsq0.loadToUse::0-9                 910793     99.13%     99.13% # Distribution of cycle latency between the first time a load is issued and its completion (Unspecified)
system.cpu.lsq0.loadToUse::10-19                  391      0.04%     99.17% # Distribution of cycle latency between the first time a load is issued and its completion (Unspecified)
system.cpu.lsq0.loadToUse::20-29                  279      0.03%     99.20% # Distribution of cycle latency between the first time a load is issued and its completion (Unspecified)
system.cpu.lsq0.loadToUse::30-39                  187      0.02%     99.23% # Distribution of cycle latency between the first time a load is issued and its completion (Unspecified)
system.cpu.lsq0.loadToUse::40-49                   83      0.01%     99.23% # Distribution of cycle latency between the first time a load is issued and its completion (Unspecified)
system.cpu.lsq0.loadToUse::50-59                   61      0.01%     99.24% # Distribution of cycle latency between the first time a load is issued and its completion (Unspecified)
system.cpu.lsq0.loadToUse::60-69                   98      0.01%     99.25% # Distribution of cycle latency between the first time a load is issued and its completion (Unspecified)
system.cpu.lsq0.loadToUse::70-79                  140      0.02%     99.27% # Distribution of cycle latency between the first time a load is issued and its completion (Unspecified)
system.cpu.lsq0.loadToUse::80-89                  190      0.02%     99.29% # Distribution of cycle latency between the first time a load is issued and its completion (Unspecified)
system.cpu.lsq0.loadToUse::90-99                  284      0.03%     99.32% # Distribution of cycle latency between the first time a load is issued and its completion (Unspecified)
[...]
system.l2.ReadCleanReq.mshrMissRate::total     0.911095                       # mshr miss rate for ReadCleanReq accesses (Ratio)
system.l2.ReadCleanReq.avgMshrMissLatency::cpu.inst 51110.070258                       # average ReadCleanReq mshr miss latency ((Tick/Count))
system.l2.ReadCleanReq.avgMshrMissLatency::total 51110.070258                       # average ReadCleanReq mshr miss latency ((Tick/Count))
system.l2.ReadExReq.misses::cpu.data              575                       # number of ReadExReq misses (Count)
system.l2.ReadExReq.misses::total                 575                       # number of ReadExReq misses (Count)
system.l2.ReadExReq.missLatency::cpu.data     35149000                       # number of ReadExReq miss ticks (Tick)
system.l2.ReadExReq.missLatency::total       35149000                       # number of ReadExReq miss ticks (Tick)
system.l2.ReadExReq.accesses::cpu.data            575                       # number of ReadExReq accesses(hits+misses) (Count)
system.l2.ReadExReq.accesses::total               575                       # number of ReadExReq accesses(hits+misses) (Count)
system.l2.ReadExReq.missRate::cpu.data              1                       # miss rate for ReadExReq accesses (Ratio)
system.l2.ReadExReq.missRate::total                 1                       # miss rate for ReadExReq accesses (Ratio)
system.l2.ReadExReq.avgMissLatency::cpu.data 61128.695652                       # average ReadExReq miss latency ((Tick/Count))
system.l2.ReadExReq.avgMissLatency::total 61128.695652                       # average ReadExReq miss latency ((Tick/Count))
system.l2.ReadExReq.mshrMisses::cpu.data          575                       # number of ReadExReq MSHR misses (Count)
system.l2.ReadExReq.mshrMisses::total             575                       # number of ReadExReq MSHR misses (Count)
system.l2.ReadExReq.mshrMissLatency::cpu.data     29399000                       # number of ReadExReq MSHR miss ticks (Tick)
system.l2.ReadExReq.mshrMissLatency::total     29399000                       # number of ReadExReq MSHR miss ticks (Tick)
system.l2.ReadExReq.mshrMissRate::cpu.data            1                       # mshr miss rate for ReadExReq accesses (Ratio)
system.l2.ReadExReq.mshrMissRate::total             1                       # mshr miss rate for ReadExReq accesses (Ratio)
system.l2.ReadExReq.avgMshrMissLatency::cpu.data 51128.695652                       # average ReadExReq mshr miss latency ((Tick/Count))
system.l2.ReadExReq.avgMshrMissLatency::total 51128.695652                       # average ReadExReq mshr miss latency ((Tick/Count))
system.l2.ReadSharedReq.misses::cpu.data         2046                       # number of ReadSharedReq misses (Count)
system.l2.ReadSharedReq.misses::total            2046                       # number of ReadSharedReq misses (Count)
system.l2.ReadSharedReq.missLatency::cpu.data    125334500                       # number of ReadSharedReq miss ticks (Tick)
system.l2.ReadSharedReq.missLatency::total    125334500                       # number of ReadSharedReq miss ticks (Tick)
system.l2.ReadSharedReq.accesses::cpu.data         2046                       # number of ReadSharedReq accesses(hits+misses) (Count)
system.l2.ReadSharedReq.accesses::total          2046                       # number of ReadSharedReq accesses(hits+misses) (Count)
system.l2.ReadSharedReq.missRate::cpu.data            1                       # miss rate for ReadSharedReq accesses (Ratio)
system.l2.ReadSharedReq.missRate::total             1                       # miss rate for ReadSharedReq accesses (Ratio)
system.l2.ReadSharedReq.avgMissLatency::cpu.data 61258.308895                       # average ReadSharedReq miss latency ((Tick/Count))
system.l2.ReadSharedReq.avgMissLatency::total 61258.308895                       # average ReadSharedReq miss latency ((Tick/Count))
system.l2.ReadSharedReq.mshrMisses::cpu.data         2046                       # number of ReadSharedReq MSHR misses (Count)
system.l2.ReadSharedReq.mshrMisses::total         2046                       # number of ReadSharedReq MSHR misses (Count)
system.l2.ReadSharedReq.mshrMissLatency::cpu.data    104874500                       # number of ReadSharedReq MSHR miss ticks (Tick)
system.l2.ReadSharedReq.mshrMissLatency::total    104874500                       # number of ReadSharedReq MSHR miss ticks (Tick)
system.l2.ReadSharedReq.mshrMissRate::cpu.data            1                       # mshr miss rate for ReadSharedReq accesses (Ratio)
system.l2.ReadSharedReq.mshrMissRate::total            1                       # mshr miss rate for ReadSharedReq accesses (Ratio)
system.l2.ReadSharedReq.avgMshrMissLatency::cpu.data 51258.308895                       # average ReadSharedReq mshr miss latency ((Tick/Count))
system.l2.ReadSharedReq.avgMshrMissLatency::total 51258.308895                       # average ReadSharedReq mshr miss latency ((Tick/Count))
system.l2.WritebackClean.hits::writebacks          899                       # number of WritebackClean hits (Count)
system.l2.WritebackClean.hits::total              899                       # number of WritebackClean hits (Count)
system.l2.WritebackClean.accesses::writebacks          899                       # number of WritebackClean accesses(hits+misses) (Count)
system.l2.WritebackClean.accesses::total          899                       # number of WritebackClean accesses(hits+misses) (Count)
system.l2.power_state.pwrStateResidencyTicks::UNDEFINED   2570290000                       # Cumulative time (in ticks) in various power states (Tick)
system.l2.tags.tagsInUse                  3695.506388                       # Average ticks per tags in use ((Tick/Count))
system.l2.tags.totalRefs                         4925                       # Total number of references to valid blocks. (Count)
system.l2.tags.sampledRefs                       3901                       # Sample count of references to valid blocks. (Count)
system.l2.tags.avgRefs                       1.262497                       # Average number of references to valid blocks. ((Count/Count))
system.l2.tags.warmupTick                       52000                       # The tick when the warmup percentage was hit. (Tick)
system.l2.tags.occupancies::cpu.inst      1176.890566                       # Average occupied blocks per tick, per requestor ((Count/Tick))
system.l2.tags.occupancies::cpu.data      2518.615822                       # Average occupied blocks per tick, per requestor ((Count/Tick))
system.l2.tags.avgOccs::cpu.inst             0.035916                       # Average percentage of cache occupancy ((Ratio/Tick))
system.l2.tags.avgOccs::cpu.data             0.076862                       # Average percentage of cache occupancy ((Ratio/Tick))
system.l2.tags.avgOccs::total                0.112778                       # Average percentage of cache occupancy ((Ratio/Tick))
system.l2.tags.occupanciesTaskId::1024           3901                       # Occupied blocks per task id (Count)
system.l2.tags.ageTaskId_1024::0                   77                       # Occupied blocks per task id, per block age (Count)
system.l2.tags.ageTaskId_1024::3                 3824                       # Occupied blocks per task id, per block age (Count)
system.l2.tags.ratioOccsTaskId::1024         0.119049                       # Ratio of occupied blocks and all blocks, per task id (Ratio)
system.l2.tags.tagAccesses                      43309                       # Number of tag accesses (Count)
system.l2.tags.dataAccesses                     43309                       # Number of data accesses (Count)
system.l2.tags.power_state.pwrStateResidencyTicks::UNDEFINED   2570290000                       # Cumulative time (in ticks) in various power states (Tick)
system.mem_ctrls.bytesRead::cpu.inst            81920                       # Number of bytes read from this memory (Byte)
system.mem_ctrls.bytesRead::cpu.data           167744                       # Number of bytes read from this memory (Byte)
system.mem_ctrls.bytesRead::total              249664                       # Number of bytes read from this memory (Byte)
system.mem_ctrls.bytesInstRead::cpu.inst        81920                       # Number of instructions bytes read from this memory (Byte)
system.mem_ctrls.bytesInstRead::total           81920                       # Number of instructions bytes read from this memory (Byte)
system.mem_ctrls.numReads::cpu.inst              1280                       # Number of read requests responded to by this memory (Count)
system.mem_ctrls.numReads::cpu.data              2621                       # Number of read requests responded to by this memory (Count)
system.mem_ctrls.numReads::total                 3901                       # Number of read requests responded to by this memory (Count)
system.mem_ctrls.bwRead::cpu.inst            31871890                       # Total read bandwidth from this memory ((Byte/Second))
system.mem_ctrls.bwRead::cpu.data            65262675                       # Total read bandwidth from this memory ((Byte/Second))
system.mem_ctrls.bwRead::total               97134565                       # Total read bandwidth from this memory ((Byte/Second))
system.mem_ctrls.bwInstRead::cpu.inst        31871890                       # Instruction read bandwidth from this memory ((Byte/Second))
system.mem_ctrls.bwInstRead::total           31871890                       # Instruction read bandwidth from this memory ((Byte/Second))
system.mem_ctrls.bwTotal::cpu.inst           31871890                       # Total bandwidth to/from this memory ((Byte/Second))
system.mem_ctrls.bwTotal::cpu.data           65262675                       # Total bandwidth to/from this memory ((Byte/Second))
system.mem_ctrls.bwTotal::total              97134565                       # Total bandwidth to/from this memory ((Byte/Second))
system.mem_ctrls.power_state.pwrStateResidencyTicks::UNDEFINED   2570290000                       # Cumulative time (in ticks) in various power states (Tick)
system.membus.transDist::ReadResp                3326                       # Transaction distribution (Count)
system.membus.transDist::ReadExReq                575                       # Transaction distribution (Count)
system.membus.transDist::ReadExResp               575                       # Transaction distribution (Count)
system.membus.transDist::ReadSharedReq           3326                       # Transaction distribution (Count)
system.membus.pktCount_system.l2.mem_side_port::system.mem_ctrls.port         7802                       # Packet count per connected requestor and responder (Count)
system.membus.pktCount_system.l2.mem_side_port::total         7802                       # Packet count per connected requestor and responder (Count)
system.membus.pktCount::total                    7802                       # Packet count per connected requestor and responder (Count)
system.membus.pktSize_system.l2.mem_side_port::system.mem_ctrls.port       249664                       # Cumulative packet size per connected requestor and responder (Byte)
system.membus.pktSize_system.l2.mem_side_port::total       249664                       # Cumulative packet size per connected requestor and responder (Byte)
system.membus.pktSize::total                   249664                       # Cumulative packet size per connected requestor and responder (Byte)
system.membus.snoops                                0                       # Total snoops (Count)
system.membus.snoopTraffic                          0                       # Total snoop traffic (Byte)
system.membus.snoopFanout::samples               4489                       # Request fanout histogram (Count)
system.membus.snoopFanout::mean                     0                       # Request fanout histogram (Count)
system.membus.snoopFanout::stdev                    0                       # Request fanout histogram (Count)
system.membus.snoopFanout::underflows               0      0.00%      0.00% # Request fanout histogram (Count)
system.membus.snoopFanout::0                     4489    100.00%    100.00% # Request fanout histogram (Count)
system.membus.snoopFanout::1                        0      0.00%    100.00% # Request fanout histogram (Count)
system.membus.snoopFanout::overflows                0      0.00%    100.00% # Request fanout histogram (Count)
system.membus.snoopFanout::min_value                0                       # Request fanout histogram (Count)
system.membus.snoopFanout::max_value                0                       # Request fanout histogram (Count)
system.membus.snoopFanout::total                 4489                       # Request fanout histogram (Count)
system.membus.power_state.pwrStateResidencyTicks::UNDEFINED   2570290000                       # Cumulative time (in ticks) in various power states (Tick)
system.membus.reqLayer2.occupancy             5568128                       # Layer occupancy (ticks) (Tick)
system.membus.reqLayer2.utilization               0.0                       # Layer utilization (Ratio)
system.membus.respLayer1.occupancy           19505000                       # Layer occupancy (ticks) (Tick)
system.membus.respLayer1.utilization              0.0                       # Layer utilization (Ratio)
system.membus.snoop_filter.totRequests           4489                       # Total number of requests made to the snoop filter. (Count)
system.membus.snoop_filter.hitSingleRequests            0                       # Number of requests hitting in the snoop filter with a single holder of the requested data. (Count)
system.membus.snoop_filter.hitMultiRequests            0                       # Number of requests hitting in the snoop filter with multiple (>1) holders of the requested data. (Count)
system.membus.snoop_filter.totSnoops                0                       # Total number of snoops made to the snoop filter. (Count)
system.membus.snoop_filter.hitSingleSnoops            0                       # Number of snoops hitting in the snoop filter with a single holder of the requested data. (Count)
system.membus.snoop_filter.hitMultiSnoops            0                       # Number of snoops hitting in the snoop filter with multiple (>1) holders of the requested data. (Count)
system.tol2bus.transDist::ReadResp               3451                       # Transaction distribution (Count)
system.tol2bus.transDist::WritebackClean          899                       # Transaction distribution (Count)
system.tol2bus.transDist::ReadExReq               575                       # Transaction distribution (Count)
system.tol2bus.transDist::ReadExResp              575                       # Transaction distribution (Count)
system.tol2bus.transDist::ReadCleanReq           1406                       # Transaction distribution (Count)
system.tol2bus.transDist::ReadSharedReq          2046                       # Transaction distribution (Count)
system.tol2bus.pktCount_system.cpu.icache.mem_side_port::system.l2.cpu_side_port         3710                       # Packet count per connected requestor and responder (Count)
system.tol2bus.pktCount_system.cpu.dcache.mem_side_port::system.l2.cpu_side_port         5242                       # Packet count per connected requestor and responder (Count)
system.tol2bus.pktCount::total                   8952                       # Packet count per connected requestor and responder (Count)
system.tol2bus.pktSize_system.cpu.icache.mem_side_port::system.l2.cpu_side_port       147456                       # Cumulative packet size per connected requestor and responder (Byte)
system.tol2bus.pktSize_system.cpu.dcache.mem_side_port::system.l2.cpu_side_port       167744                       # Cumulative packet size per connected requestor and responder (Byte)
system.tol2bus.pktSize::total                  315200                       # Cumulative packet size per connected requestor and responder (Byte)
system.tol2bus.snoops                               0                       # Total snoops (Count)
system.tol2bus.snoopTraffic                         0                       # Total snoop traffic (Byte)
system.tol2bus.snoopFanout::samples              4027                       # Request fanout histogram (Count)
system.tol2bus.snoopFanout::mean             0.000248                       # Request fanout histogram (Count)
system.tol2bus.snoopFanout::stdev            0.015758                       # Request fanout histogram (Count)
system.tol2bus.snoopFanout::underflows              0      0.00%      0.00% # Request fanout histogram (Count)
system.tol2bus.snoopFanout::0                    4026     99.98%     99.98% # Request fanout histogram (Count)
system.tol2bus.snoopFanout::1                       1      0.02%    100.00% # Request fanout histogram (Count)
system.tol2bus.snoopFanout::2                       0      0.00%    100.00% # Request fanout histogram (Count)
system.tol2bus.snoopFanout::3                       0      0.00%    100.00% # Request fanout histogram (Count)
system.tol2bus.snoopFanout::4                       0      0.00%    100.00% # Request fanout histogram (Count)
system.tol2bus.snoopFanout::overflows               0      0.00%    100.00% # Request fanout histogram (Count)
system.tol2bus.snoopFanout::min_value               0                       # Request fanout histogram (Count)
system.tol2bus.snoopFanout::max_value               1                       # Request fanout histogram (Count)
system.tol2bus.snoopFanout::total                4027                       # Request fanout histogram (Count)
system.tol2bus.power_state.pwrStateResidencyTicks::UNDEFINED   2570290000                       # Cumulative time (in ticks) in various power states (Tick)
system.tol2bus.reqLayer0.occupancy            3362000                       # Layer occupancy (ticks) (Tick)
system.tol2bus.reqLayer0.utilization              0.0                       # Layer utilization (Ratio)
system.tol2bus.respLayer0.occupancy           2107500                       # Layer occupancy (ticks) (Tick)
system.tol2bus.respLayer0.utilization             0.0                       # Layer utilization (Ratio)
system.tol2bus.respLayer1.occupancy           3931999                       # Layer occupancy (ticks) (Tick)
system.tol2bus.respLayer1.utilization             0.0                       # Layer utilization (Ratio)
system.tol2bus.snoop_filter.totRequests          4926                       # Total number of requests made to the snoop filter. (Count)
system.tol2bus.snoop_filter.hitSingleRequests          900                       # Number of requests hitting in the snoop filter with a single holder of the requested data. (Count)
system.tol2bus.snoop_filter.hitMultiRequests            0                       # Number of requests hitting in the snoop filter with multiple (>1) holders of the requested data. (Count)
system.tol2bus.snoop_filter.totSnoops               0                       # Total number of snoops made to the snoop filter. (Count)
system.tol2bus.snoop_filter.hitSingleSnoops            0                       # Number of snoops hitting in the snoop filter with a single holder of the requested data. (Count)
system.tol2bus.snoop_filter.hitMultiSnoops            0                       # Number of snoops hitting in the snoop filter with multiple (>1) holders of the requested data. (Count)
system.voltage_domain.voltage                       1                       # Voltage in Volts (Volt)
system.workload.inst.arm                            0                       # number of arm instructions executed (Count)
system.workload.inst.quiesce                        0                       # number of quiesce instructions executed (Count)

---------- End Simulation Statistics   ----------
