
---------- Begin Simulation Statistics ----------
simSeconds                                   0.006653                       # Number of seconds simulated (Second)
simTicks                                   6652976000                       # Number of ticks simulated (Tick)
finalTick                                  6652976000                       # Number of ticks from beginning of simulation (restored from checkpoints and never reset) (Tick)
simFreq                                  1000000000000                       # The number of ticks per simulated second ((Tick/Second))
hostSeconds                                    413.18                       # Real time elapsed on the host (Second)
hostTickRate                                 16101914                       # The number of ticks simulated per host second (ticks/s) ((Tick/Second))
hostMemory                                    8807452                       # Number of bytes of host memory used (Byte)
simInsts                                     13093343                       # Number of instructions simulated (Count)
simOps                                       24987724                       # Number of ops (including micro ops) simulated (Count)
hostInstRate                                    31689                       # Simulator instruction rate (inst/s) ((Count/Second))
hostOpRate                                      60476                       # Simulator op (including micro ops) rate (op/s) ((Count/Second))
system.clk_domain.clock                          1000                       # Clock period in ticks (Tick)
system.cpu.numCycles                         13305953                       # Number of cpu cycles simulated (Cycle)
system.cpu.numWorkItemsStarted                      0                       # Number of work items this cpu started (Count)
system.cpu.numWorkItemsCompleted                    0                       # Number of work items this cpu completed (Count)
system.cpu.instsAdded                        29560398                       # Number of instructions added to the IQ (excludes non-spec) (Count)
system.cpu.nonSpecInstsAdded                    68350                       # Number of non-speculative instructions added to the IQ (Count)
system.cpu.instsIssued                       28029440                       # Number of instructions issued (Count)
system.cpu.squashedInstsIssued                 107616                       # Number of squashed instructions issued (Count)
system.cpu.squashedInstsExamined              4641009                       # Number of squashed instructions iterated over during squash; mainly for profiling (Count)
system.cpu.squashedOperandsExamined           6457462                       # Number of squashed operands that are examined and possibly removed from graph (Count)
system.cpu.squashedNonSpecRemoved               39189                       # Number of squashed non-spec instructions that were removed (Count)
system.cpu.numIssuedDist::samples            13011828                       # Number of insts issued each cycle (Count)
system.cpu.numIssuedDist::mean               2.154151                       # Number of insts issued each cycle (Count)
system.cpu.numIssuedDist::stdev              2.597585                       # Number of insts issued each cycle (Count)
system.cpu.numIssuedDist::underflows                0      0.00%      0.00% # Number of insts issued each cycle (Count)
system.cpu.numIssuedDist::0                   6500968     49.96%     49.96% # Number of insts issued each cycle (Count)
system.cpu.numIssuedDist::1                    784941      6.03%     55.99% # Number of insts issued each cycle (Count)
system.cpu.numIssuedDist::2                    719560      5.53%     61.52% # Number of insts issued each cycle (Count)
system.cpu.numIssuedDist::3                   1033882      7.95%     69.47% # Number of insts issued each cycle (Count)
system.cpu.numIssuedDist::4                    767343      5.90%     75.37% # Number of insts issued each cycle (Count)
system.cpu.numIssuedDist::5                    895892      6.89%     82.25% # Number of insts issued each cycle (Count)
system.cpu.numIssuedDist::6                   1263691      9.71%     91.96% # Number of insts issued each cycle (Count)
system.cpu.numIssuedDist::7                    791653      6.08%     98.05% # Number of insts issued each cycle (Count)
system.cpu.numIssuedDist::8                    253898      1.95%    100.00% # Number of insts issued each cycle (Count)
system.cpu.numIssuedDist::overflows                 0      0.00%    100.00% # Number of insts issued each cycle (Count)
system.cpu.numIssuedDist::min_value                 0                       # Number of insts issued each cycle (Count)
system.cpu.numIssuedDist::max_value                 8                       # Number of insts issued each cycle (Count)
system.cpu.numIssuedDist::total              13011828                       # Number of insts issued each cycle (Count)
system.cpu.statFuBusy::No_OpClass                   0      0.00%      0.00% # attempts to use FU when none available (Count)
system.cpu.statFuBusy::IntAlu                 1239435     97.12%     97.12% # attempts to use FU when none available (Count)
system.cpu.statFuBusy::IntMult                      0      0.00%     97.12% # attempts to use FU when none available (Count)
system.cpu.statFuBusy::IntDiv                       0      0.00%     97.12% # attempts to use FU when none available (Count)
system.cpu.statFuBusy::FloatAdd                     0      0.00%     97.12% # attempts to use FU when none available (Count)
system.cpu.statFuBusy::FloatCmp                     0      0.00%     97.12% # attempts to use FU when none available (Count)
system.cpu.statFuBusy::FloatCvt                     1      0.00%     97.12% # attempts to use FU when none available (Count)
system.cpu.statFuBusy::FloatMult                    0      0.00%     97.12% # attempts to use FU when none available (Count)
system.cpu.statFuBusy::FloatMultAcc                 0      0.00%     97.12% # attempts to use FU when none available (Count)
system.cpu.statFuBusy::FloatDiv                     0      0.00%     97.12% # attempts to use FU when none available (Count)
system.cpu.statFuBusy::FloatMisc                    0      0.00%     97.12% # attempts to use FU when none available (Count)
system.cpu.statFuBusy::FloatSqrt                    0      0.00%     97.12% # attempts to use FU when none available (Count)
system.cpu.statFuBusy::SimdAdd                      1      0.00%     97.12% # attempts to use FU when none available (Count)
system.cpu.statFuBusy::SimdAddAcc                   0      0.00%     97.12% # attempts to use FU when none available (Count)
system.cpu.statFuBusy::SimdAlu                    128      0.01%     97.13% # attempts to use FU when none available (Count)
system.cpu.statFuBusy::SimdCmp                      0      0.00%     97.13% # attempts to use FU when none available (Count)
system.cpu.statFuBusy::SimdCvt                    973      0.08%     97.21% # attempts to use FU when none available (Count)
system.cpu.statFuBusy::SimdMisc                    14      0.00%     97.21% # attempts to use FU when none available (Count)
system.cpu.statFuBusy::SimdMult                     0      0.00%     97.21% # attempts to use FU when none available (Count)
system.cpu.statFuBusy::SimdMultAcc                  0      0.00%     97.21% # attempts to use FU when none available (Count)
system.cpu.statFuBusy::SimdShift                   22      0.00%     97.21% # attempts to use FU when none available (Count)
system.cpu.statFuBusy::SimdShiftAcc                 0      0.00%     97.21% # attempts to use FU when none available (Count)
system.cpu.statFuBusy::SimdDiv                      0      0.00%     97.21% # attempts to use FU when none available (Count)
system.cpu.statFuBusy::SimdSqrt                     0      0.00%     97.21% # attempts to use FU when none available (Count)
system.cpu.statFuBusy::SimdFloatAdd                 0      0.00%     97.21% # attempts to use FU when none available (Count)
system.cpu.statFuBusy::SimdFloatAlu                 0      0.00%     97.21% # attempts to use FU when none available (Count)
system.cpu.statFuBusy::SimdFloatCmp                 0      0.00%     97.21% # attempts to use FU when none available (Count)
system.cpu.statFuBusy::SimdFloatCvt                 0      0.00%     97.21% # attempts to use FU when none available (Count)
system.cpu.statFuBusy::SimdFloatDiv                 0      0.00%     97.21% # attempts to use FU when none available (Count)
system.cpu.statFuBusy::SimdFloatMisc                0      0.00%     97.21% # attempts to use FU when none available (Count)
system.cpu.statFuBusy::SimdFloatMult                0      0.00%     97.21% # attempts to use FU when none available (Count)
system.cpu.statFuBusy::SimdFloatMultAcc             0      0.00%     97.21% # attempts to use FU when none available (Count)
system.cpu.statFuBusy::SimdFloatSqrt                0      0.00%     97.21% # attempts to use FU when none available (Count)
system.cpu.statFuBusy::SimdReduceAdd                0      0.00%     97.21% # attempts to use FU when none available (Count)
system.cpu.statFuBusy::SimdReduceAlu                0      0.00%     97.21% # attempts to use FU when none available (Count)
system.cpu.statFuBusy::SimdReduceCmp                0      0.00%     97.21% # attempts to use FU when none available (Count)
system.cpu.statFuBusy::SimdFloatReduceAdd            0      0.00%     97.21% # attempts to use FU when none available (Count)
system.cpu.statFuBusy::SimdFloatReduceCmp            0      0.00%     97.21% # attempts to use FU when none available (Count)
system.cpu.statFuBusy::SimdAes                      0      0.00%     97.21% # attempts to use FU when none available (Count)
system.cpu.statFuBusy::SimdAesMix                   0      0.00%     97.21% # attempts to use FU when none available (Count)
system.cpu.statFuBusy::SimdSha1Hash                 0      0.00%     97.21% # attempts to use FU when none available (Count)
system.cpu.statFuBusy::SimdSha1Hash2                0      0.00%     97.21% # attempts to use FU when none available (Count)
system.cpu.statFuBusy::SimdSha256Hash               0      0.00%     97.21% # attempts to use FU when none available (Count)
system.cpu.statFuBusy::SimdSha256Hash2              0      0.00%     97.21% # attempts to use FU when none available (Count)
system.cpu.statFuBusy::SimdShaSigma2                0      0.00%     97.21% # attempts to use FU when none available (Count)
system.cpu.statFuBusy::SimdShaSigma3                0      0.00%     97.21% # attempts to use FU when none available (Count)
system.cpu.statFuBusy::SimdPredAlu                  0      0.00%     97.21% # attempts to use FU when none available (Count)
system.cpu.statFuBusy::MemRead                  25410      1.99%     99.20% # attempts to use FU when none available (Count)
system.cpu.statFuBusy::MemWrite                  9203      0.72%     99.92% # attempts to use FU when none available (Count)
system.cpu.statFuBusy::FloatMemRead               747      0.06%     99.98% # attempts to use FU when none available (Count)
system.cpu.statFuBusy::FloatMemWrite              253      0.02%    100.00% # attempts to use FU when none available (Count)
system.cpu.statFuBusy::IprAccess                    0      0.00%    100.00% # attempts to use FU when none available (Count)
system.cpu.statFuBusy::InstPrefetch                 0      0.00%    100.00% # attempts to use FU when none available (Count)
system.cpu.statIssuedInstType_0::No_OpClass       105409      0.38%      0.38% # Number of instructions issued per FU type, per thread (Count)
system.cpu.statIssuedInstType_0::IntAlu      23738475     84.69%     85.07% # Number of instructions issued per FU type, per thread (Count)
system.cpu.statIssuedInstType_0::IntMult       121621      0.43%     85.50% # Number of instructions issued per FU type, per thread (Count)
system.cpu.statIssuedInstType_0::IntDiv         40481      0.14%     85.65% # Number of instructions issued per FU type, per thread (Count)
system.cpu.statIssuedInstType_0::FloatAdd         8599      0.03%     85.68% # Number of instructions issued per FU type, per thread (Count)
system.cpu.statIssuedInstType_0::FloatCmp            0      0.00%     85.68% # Number of instructions issued per FU type, per thread (Count)
system.cpu.statIssuedInstType_0::FloatCvt         2505      0.01%     85.69% # Number of instructions issued per FU type, per thread (Count)
system.cpu.statIssuedInstType_0::FloatMult            0      0.00%     85.69% # Number of instructions issued per FU type, per thread (Count)
system.cpu.statIssuedInstType_0::FloatMultAcc            0      0.00%     85.69% # Number of instructions issued per FU type, per thread (Count)
system.cpu.statIssuedInstType_0::FloatDiv            0      0.00%     85.69% # Number of instructions issued per FU type, per thread (Count)
system.cpu.statIssuedInstType_0::FloatMisc            0      0.00%     85.69% # Number of instructions issued per FU type, per thread (Count)
system.cpu.statIssuedInstType_0::FloatSqrt            0      0.00%     85.69% # Number of instructions issued per FU type, per thread (Count)
system.cpu.statIssuedInstType_0::SimdAdd         7813      0.03%     85.71% # Number of instructions issued per FU type, per thread (Count)
system.cpu.statIssuedInstType_0::SimdAddAcc            0      0.00%     85.71% # Number of instructions issued per FU type, per thread (Count)
system.cpu.statIssuedInstType_0::SimdAlu        15972      0.06%     85.77% # Number of instructions issued per FU type, per thread (Count)
system.cpu.statIssuedInstType_0::SimdCmp            8      0.00%     85.77% # Number of instructions issued per FU type, per thread (Count)
system.cpu.statIssuedInstType_0::SimdCvt        16937      0.06%     85.83% # Number of instructions issued per FU type, per thread (Count)
system.cpu.statIssuedInstType_0::SimdMisc        14883      0.05%     85.88% # Number of instructions issued per FU type, per thread (Count)
system.cpu.statIssuedInstType_0::SimdMult            0      0.00%     85.88% # Number of instructions issued per FU type, per thread (Count)
system.cpu.statIssuedInstType_0::SimdMultAcc            0      0.00%     85.88% # Number of instructions issued per FU type, per thread (Count)
system.cpu.statIssuedInstType_0::SimdShift         2330      0.01%     85.89% # Number of instructions issued per FU type, per thread (Count)
system.cpu.statIssuedInstType_0::SimdShiftAcc            0      0.00%     85.89% # Number of instructions issued per FU type, per thread (Count)
system.cpu.statIssuedInstType_0::SimdDiv            0      0.00%     85.89% # Number of instructions issued per FU type, per thread (Count)
system.cpu.statIssuedInstType_0::SimdSqrt            0      0.00%     85.89% # Number of instructions issued per FU type, per thread (Count)
system.cpu.statIssuedInstType_0::SimdFloatAdd           10      0.00%     85.89% # Number of instructions issued per FU type, per thread (Count)
system.cpu.statIssuedInstType_0::SimdFloatAlu            0      0.00%     85.89% # Number of instructions issued per FU type, per thread (Count)
system.cpu.statIssuedInstType_0::SimdFloatCmp            0      0.00%     85.89% # Number of instructions issued per FU type, per thread (Count)
system.cpu.statIssuedInstType_0::SimdFloatCvt           12      0.00%     85.89% # Number of instructions issued per FU type, per thread (Count)
system.cpu.statIssuedInstType_0::SimdFloatDiv            4      0.00%     85.89% # Number of instructions issued per FU type, per thread (Count)
system.cpu.statIssuedInstType_0::SimdFloatMisc            0      0.00%     85.89% # Number of instructions issued per FU type, per thread (Count)
system.cpu.statIssuedInstType_0::SimdFloatMult            0      0.00%     85.89% # Number of instructions issued per FU type, per thread (Count)
system.cpu.statIssuedInstType_0::SimdFloatMultAcc            0      0.00%     85.89% # Number of instructions issued per FU type, per thread (Count)
system.cpu.statIssuedInstType_0::SimdFloatSqrt            0      0.00%     85.89% # Number of instructions issued per FU type, per thread (Count)
system.cpu.statIssuedInstType_0::SimdReduceAdd            0      0.00%     85.89% # Number of instructions issued per FU type, per thread (Count)
system.cpu.statIssuedInstType_0::SimdReduceAlu            0      0.00%     85.89% # Number of instructions issued per FU type, per thread (Count)
system.cpu.statIssuedInstType_0::SimdReduceCmp            0      0.00%     85.89% # Number of instructions issued per FU type, per thread (Count)
system.cpu.statIssuedInstType_0::SimdFloatReduceAdd            0      0.00%     85.89% # Number of instructions issued per FU type, per thread (Count)
system.cpu.statIssuedInstType_0::SimdFloatReduceCmp            0      0.00%     85.89% # Number of instructions issued per FU type, per thread (Count)
system.cpu.statIssuedInstType_0::SimdAes            0      0.00%     85.89% # Number of instructions issued per FU type, per thread (Count)
system.cpu.statIssuedInstType_0::SimdAesMix            0      0.00%     85.89% # Number of instructions issued per FU type, per thread (Count)
system.cpu.statIssuedInstType_0::SimdSha1Hash            0      0.00%     85.89% # Number of instructions issued per FU type, per thread (Count)
system.cpu.statIssuedInstType_0::SimdSha1Hash2            0      0.00%     85.89% # Number of instructions issued per FU type, per thread (Count)
system.cpu.statIssuedInstType_0::SimdSha256Hash            0      0.00%     85.89% # Number of instructions issued per FU type, per thread (Count)
system.cpu.statIssuedInstType_0::SimdSha256Hash2            0      0.00%     85.89% # Number of instructions issued per FU type, per thread (Count)
system.cpu.statIssuedInstType_0::SimdShaSigma2            0      0.00%     85.89% # Number of instructions issued per FU type, per thread (Count)
system.cpu.statIssuedInstType_0::SimdShaSigma3            0      0.00%     85.89% # Number of instructions issued per FU type, per thread (Count)
system.cpu.statIssuedInstType_0::SimdPredAlu            0      0.00%     85.89% # Number of instructions issued per FU type, per thread (Count)
system.cpu.statIssuedInstType_0::MemRead      2810160     10.03%     95.92% # Number of instructions issued per FU type, per thread (Count)
system.cpu.statIssuedInstType_0::MemWrite      1101055      3.93%     99.85% # Number of instructions issued per FU type, per thread (Count)
system.cpu.statIssuedInstType_0::FloatMemRead        25448      0.09%     99.94% # Number of instructions issued per FU type, per thread (Count)
system.cpu.statIssuedInstType_0::FloatMemWrite        17718      0.06%    100.00% # Number of instructions issued per FU type, per thread (Count)
system.cpu.statIssuedInstType_0::IprAccess            0      0.00%    100.00% # Number of instructions issued per FU type, per thread (Count)
system.cpu.statIssuedInstType_0::InstPrefetch            0      0.00%    100.00% # Number of instructions issued per FU type, per thread (Count)
system.cpu.statIssuedInstType_0::total       28029440                       # Number of instructions issued per FU type, per thread (Count)
system.cpu.issueRate                         2.106534                       # Inst issue rate ((Count/Cycle))
system.cpu.fuBusy                             1276187                       # FU busy when requested (Count)
system.cpu.fuBusyRate                        0.045530                       # FU busy rate (busy events/executed inst) ((Count/Count))
system.cpu.intInstQueueReads                 70219990                       # Number of integer instruction queue reads (Count)
system.cpu.intInstQueueWrites                34109401                       # Number of integer instruction queue writes (Count)
system.cpu.intInstQueueWakeupAccesses        27671424                       # Number of integer instruction queue wakeup accesses (Count)
system.cpu.fpInstQueueReads                    234521                       # Number of floating instruction queue reads (Count)
system.cpu.fpInstQueueWrites                   160596                       # Number of floating instruction queue writes (Count)
system.cpu.fpInstQueueWakeupAccesses           112649                       # Number of floating instruction queue wakeup accesses (Count)
system.cpu.vecInstQueueReads                        0                       # Number of vector instruction queue reads (Count)
system.cpu.vecInstQueueWrites                       0                       # Number of vector instruction queue writes (Count)
system.cpu.vecInstQueueWakeupAccesses               0                       # Number of vector instruction queue wakeup accesses (Count)
system.cpu.intAluAccesses                    29081983                       # Number of integer alu accesses (Count)
system.cpu.fpAluAccesses                       118235                       # Number of floating point alu accesses (Count)
system.cpu.vecAluAccesses                           0                       # Number of vector alu accesses (Count)
system.cpu.numInsts                          27888178                       # Number of executed instructions (Count)
system.cpu.numLoadInsts                       2797854                       # Number of load instructions executed (Count)
system.cpu.numSquashedInsts                    141262                       # Number of squashed instructions skipped in execute (Count)
system.cpu.numSwp                                   0                       # Number of swp insts executed (Count)
system.cpu.numNop                                   0                       # Number of nop insts executed (Count)
system.cpu.numRefs                            3906198                       # Number of memory reference insts executed (Count)
system.cpu.numBranches                        3377100                       # Number of branches executed (Count)
system.cpu.numStoreInsts                      1108344                       # Number of stores executed (Count)
system.cpu.numRate                           2.095917                       # Inst execution rate ((Count/Cycle))
system.cpu.timesIdled                            2385                       # Number of times that the entire CPU went into an idle state and unscheduled itself (Count)
system.cpu.idleCycles                          294125                       # Total number of cycles that the CPU has spent unscheduled due to idling (Cycle)
system.cpu.committedInsts                    13093343                       # Number of Instructions Simulated (Count)
system.cpu.committedOps                      24987724                       # Number of Ops (including micro ops) Simulated (Count)
system.cpu.cpi                               1.016238                       # CPI: Cycles Per Instruction ((Cycle/Count))
system.cpu.totalCpi                          1.016238                       # CPI: Total CPI of All Threads ((Cycle/Count))
system.cpu.ipc                               0.984021                       # IPC: Instructions Per Cycle ((Count/Cycle))
system.cpu.totalIpc                          0.984021                       # IPC: Total IPC of All Threads ((Count/Cycle))
system.cpu.intRegfileReads                   39702848                       # Number of integer regfile reads (Count)
system.cpu.intRegfileWrites                  23327024                       # Number of integer regfile writes (Count)
system.cpu.fpRegfileReads                      152682                       # Number of floating regfile reads (Count)
system.cpu.fpRegfileWrites                      84958                       # Number of floating regfile writes (Count)
system.cpu.ccRegfileReads                    19078704                       # number of cc regfile reads (Count)
system.cpu.ccRegfileWrites                   12111086                       # number of cc regfile writes (Count)
system.cpu.miscRegfileReads                  10962633                       # number of misc regfile reads (Count)
system.cpu.miscRegfileWrites                     1296                       # number of misc regfile writes (Count)
system.cpu.MemDepUnit__0.insertedLoads        3034746                       # Number of loads inserted to the mem dependence unit. (Count)
system.cpu.MemDepUnit__0.insertedStores       1204643                       # Number of stores inserted to the mem dependence unit. (Count)
system.cpu.MemDepUnit__0.conflictingLoads       224132                       # Number of conflicting loads. (Count)
system.cpu.MemDepUnit__0.conflictingStores        70229                       # Number of conflicting stores. (Count)
system.cpu.MemDepUnit__1.insertedLoads              0                       # Number of loads inserted to the mem dependence unit. (Count)
system.cpu.MemDepUnit__1.insertedStores             0                       # Number of stores inserted to the mem dependence unit. (Count)
system.cpu.MemDepUnit__1.conflictingLoads            0                       # Number of conflicting loads. (Count)
system.cpu.MemDepUnit__1.conflictingStores            0                       # Number of conflicting stores. (Count)
system.cpu.MemDepUnit__2.insertedLoads              0                       # Number of loads inserted to the mem dependence unit. (Count)
system.cpu.MemDepUnit__2.insertedStores             0                       # Number of stores inserted to the mem dependence unit. (Count)
system.cpu.MemDepUnit__2.conflictingLoads            0                       # Number of conflicting loads. (Count)
system.cpu.MemDepUnit__2.conflictingStores            0                       # Number of conflicting stores. (Count)
system.cpu.MemDepUnit__3.insertedLoads              0                       # Number of loads inserted to the mem dependence unit. (Count)
system.cpu.MemDepUnit__3.insertedStores             0                       # Number of stores inserted to the mem dependence unit. (Count)
system.cpu.MemDepUnit__3.conflictingLoads            0                       # Number of conflicting loads. (Count)
system.cpu.MemDepUnit__3.conflictingStores            0                       # Number of conflicting stores. (Count)
system.cpu.branchPred.lookups                 3966049                       # Number of BP lookups (Count)
system.cpu.branchPred.condPredicted           3690253                       # Number of conditional branches predicted (Count)
system.cpu.branchPred.condIncorrect             82011                       # Number of conditional branches incorrect (Count)
system.cpu.branchPred.BTBLookups              2384399                       # Number of BTB lookups (Count)
system.cpu.branchPred.BTBHits                 2379645                       # Number of BTB hits (Count)
system.cpu.branchPred.BTBHitRatio            0.998006                       # BTB Hit Ratio (Ratio)
system.cpu.branchPred.RASUsed                   49511                       # Number of times the RAS was used to get a target. (Count)
system.cpu.branchPred.RASIncorrect                 25                       # Number of incorrect RAS predictions. (Count)
system.cpu.branchPred.indirectLookups           47765                       # Number of indirect predictor lookups. (Count)
system.cpu.branchPred.indirectHits              38674                       # Number of indirect target hits. (Count)
system.cpu.branchPred.indirectMisses             9091                       # Number of indirect misses. (Count)
system.cpu.branchPred.indirectMispredicted         1674                       # Number of mispredicted indirect branches. (Count)
system.cpu.commit.commitSquashedInsts         4636634                       # The number of squashed insts skipped by commit (Count)
system.cpu.commit.commitNonSpecStalls           29160                       # The number of times commit has been forced to stall to communicate backwards (Count)
system.cpu.commit.branchMispredicts             81863                       # The number of times a branch was mispredicted (Count)
system.cpu.commit.numCommittedDist::samples     12369574                       # Number of insts commited each cycle (Count)
system.cpu.commit.numCommittedDist::mean     2.020096                       # Number of insts commited each cycle (Count)
system.cpu.commit.numCommittedDist::stdev     2.983638                       # Number of insts commited each cycle (Count)
system.cpu.commit.numCommittedDist::underflows            0      0.00%      0.00% # Number of insts commited each cycle (Count)
system.cpu.commit.numCommittedDist::0         7155954     57.85%     57.85% # Number of insts commited each cycle (Count)
system.cpu.commit.numCommittedDist::1          980485      7.93%     65.78% # Number of insts commited each cycle (Count)
system.cpu.commit.numCommittedDist::2          340085      2.75%     68.53% # Number of insts commited each cycle (Count)
system.cpu.commit.numCommittedDist::3         1033189      8.35%     76.88% # Number of insts commited each cycle (Count)
system.cpu.commit.numCommittedDist::4          282171      2.28%     79.16% # Number of insts commited each cycle (Count)
system.cpu.commit.numCommittedDist::5          316429      2.56%     81.72% # Number of insts commited each cycle (Count)
system.cpu.commit.numCommittedDist::6          204108      1.65%     83.37% # Number of insts commited each cycle (Count)
system.cpu.commit.numCommittedDist::7          165199      1.34%     84.70% # Number of insts commited each cycle (Count)
system.cpu.commit.numCommittedDist::8         1891954     15.30%    100.00% # Number of insts commited each cycle (Count)
system.cpu.commit.numCommittedDist::overflows            0      0.00%    100.00% # Number of insts commited each cycle (Count)
system.cpu.commit.numCommittedDist::min_value            0                       # Number of insts commited each cycle (Count)
system.cpu.commit.numCommittedDist::max_value            8                       # Number of insts commited each cycle (Count)
system.cpu.commit.numCommittedDist::total     12369574                       # Number of insts commited each cycle (Count)
system.cpu.commit.instsCommitted             13093343                       # Number of instructions committed (Count)
system.cpu.commit.opsCommitted               24987724                       # Number of ops (including micro ops) committed (Count)
system.cpu.commit.memRefs                     3436531                       # Number of memory references committed (Count)
system.cpu.commit.loads                       2425840                       # Number of loads committed (Count)
system.cpu.commit.amos                              0                       # Number of atomic instructions committed (Count)
system.cpu.commit.membars                       18576                       # Number of memory barriers committed (Count)
system.cpu.commit.branches                    3174388                       # Number of branches committed (Count)
system.cpu.commit.vectorInstructions                0                       # Number of committed Vector instructions. (Count)
system.cpu.commit.floating                      96484                       # Number of committed floating point instructions. (Count)
system.cpu.commit.integer                    24822528                       # Number of committed integer instructions. (Count)
system.cpu.commit.functionCalls                 44854                       # Number of function calls committed. (Count)
system.cpu.commit.committedInstType_0::No_OpClass        87205      0.35%      0.35% # Class of committed instruction (Count)
system.cpu.commit.committedInstType_0::IntAlu     21247992     85.03%     85.38% # Class of committed instruction (Count)
system.cpu.commit.committedInstType_0::IntMult       120804      0.48%     85.87% # Class of committed instruction (Count)
system.cpu.commit.committedInstType_0::IntDiv        37798      0.15%     86.02% # Class of committed instruction (Count)
system.cpu.commit.committedInstType_0::FloatAdd         6363      0.03%     86.04% # Class of committed instruction (Count)
system.cpu.commit.committedInstType_0::FloatCmp            0      0.00%     86.04% # Class of committed instruction (Count)
system.cpu.commit.committedInstType_0::FloatCvt         2304      0.01%     86.05% # Class of committed instruction (Count)
system.cpu.commit.committedInstType_0::FloatMult            0      0.00%     86.05% # Class of committed instruction (Count)
system.cpu.commit.committedInstType_0::FloatMultAcc            0      0.00%     86.05% # Class of committed instruction (Count)
system.cpu.commit.committedInstType_0::FloatDiv            0      0.00%     86.05% # Class of committed instruction (Count)
system.cpu.commit.committedInstType_0::FloatMisc            0      0.00%     86.05% # Class of committed instruction (Count)
system.cpu.commit.committedInstType_0::FloatSqrt            0      0.00%     86.05% # Class of committed instruction (Count)
system.cpu.commit.committedInstType_0::SimdAdd         7130      0.03%     86.08% # Class of committed instruction (Count)
system.cpu.commit.committedInstType_0::SimdAddAcc            0      0.00%     86.08% # Class of committed instruction (Count)
system.cpu.commit.committedInstType_0::SimdAlu        13046      0.05%     86.13% # Class of committed instruction (Count)
system.cpu.commit.committedInstType_0::SimdCmp            6      0.00%     86.13% # Class of committed instruction (Count)
system.cpu.commit.committedInstType_0::SimdCvt        14648      0.06%     86.19% # Class of committed instruction (Count)
system.cpu.commit.committedInstType_0::SimdMisc        12815      0.05%     86.24% # Class of committed instruction (Count)
system.cpu.commit.committedInstType_0::SimdMult            0      0.00%     86.24% # Class of committed instruction (Count)
system.cpu.commit.committedInstType_0::SimdMultAcc            0      0.00%     86.24% # Class of committed instruction (Count)
system.cpu.commit.committedInstType_0::SimdShift         1070      0.00%     86.25% # Class of committed instruction (Count)
system.cpu.commit.committedInstType_0::SimdShiftAcc            0      0.00%     86.25% # Class of committed instruction (Count)
system.cpu.commit.committedInstType_0::SimdDiv            0      0.00%     86.25% # Class of committed instruction (Count)
system.cpu.commit.committedInstType_0::SimdSqrt            0      0.00%     86.25% # Class of committed instruction (Count)
system.cpu.commit.committedInstType_0::SimdFloatAdd            4      0.00%     86.25% # Class of committed instruction (Count)
system.cpu.commit.committedInstType_0::SimdFloatAlu            0      0.00%     86.25% # Class of committed instruction (Count)
system.cpu.commit.committedInstType_0::SimdFloatCmp            0      0.00%     86.25% # Class of committed instruction (Count)
system.cpu.commit.committedInstType_0::SimdFloatCvt            6      0.00%     86.25% # Class of committed instruction (Count)
system.cpu.commit.committedInstType_0::SimdFloatDiv            2      0.00%     86.25% # Class of committed instruction (Count)
system.cpu.commit.committedInstType_0::SimdFloatMisc            0      0.00%     86.25% # Class of committed instruction (Count)
system.cpu.commit.committedInstType_0::SimdFloatMult            0      0.00%     86.25% # Class of committed instruction (Count)
system.cpu.commit.committedInstType_0::SimdFloatMultAcc            0      0.00%     86.25% # Class of committed instruction (Count)
system.cpu.commit.committedInstType_0::SimdFloatSqrt            0      0.00%     86.25% # Class of committed instruction (Count)
system.cpu.commit.committedInstType_0::SimdReduceAdd            0      0.00%     86.25% # Class of committed instruction (Count)
system.cpu.commit.committedInstType_0::SimdReduceAlu            0      0.00%     86.25% # Class of committed instruction (Count)
system.cpu.commit.committedInstType_0::SimdReduceCmp            0      0.00%     86.25% # Class of committed instruction (Count)
system.cpu.commit.committedInstType_0::SimdFloatReduceAdd            0      0.00%     86.25% # Class of committed instruction (Count)
system.cpu.commit.committedInstType_0::SimdFloatReduceCmp            0      0.00%     86.25% # Class of committed instruction (Count)
system.cpu.commit.committedInstType_0::SimdAes            0      0.00%     86.25% # Class of committed instruction (Count)
system.cpu.commit.committedInstType_0::SimdAesMix            0      0.00%     86.25% # Class of committed instruction (Count)
system.cpu.commit.committedInstType_0::SimdSha1Hash            0      0.00%     86.25% # Class of committed instruction (Count)
system.cpu.commit.committedInstType_0::SimdSha1Hash2            0      0.00%     86.25% # Class of committed instruction (Count)
system.cpu.commit.committedInstType_0::SimdSha256Hash            0      0.00%     86.25% # Class of committed instruction (Count)
system.cpu.commit.committedInstType_0::SimdSha256Hash2            0      0.00%     86.25% # Class of committed instruction (Count)
system.cpu.commit.committedInstType_0::SimdShaSigma2            0      0.00%     86.25% # Class of committed instruction (Count)
system.cpu.commit.committedInstType_0::SimdShaSigma3            0      0.00%     86.25% # Class of committed instruction (Count)
system.cpu.commit.committedInstType_0::SimdPredAlu            0      0.00%     86.25% # Class of committed instruction (Count)
system.cpu.commit.committedInstType_0::MemRead      2405753      9.63%     95.87% # Class of committed instruction (Count)
system.cpu.commit.committedInstType_0::MemWrite       994700      3.98%     99.86% # Class of committed instruction (Count)
system.cpu.commit.committedInstType_0::FloatMemRead        20087      0.08%     99.94% # Class of committed instruction (Count)
system.cpu.commit.committedInstType_0::FloatMemWrite        15991      0.06%    100.00% # Class of committed instruction (Count)
system.cpu.commit.committedInstType_0::IprAccess            0      0.00%    100.00% # Class of committed instruction (Count)
system.cpu.commit.committedInstType_0::InstPrefetch            0      0.00%    100.00% # Class of committed instruction (Count)
system.cpu.commit.committedInstType_0::total     24987724                       # Class of committed instruction (Count)
system.cpu.commit.commitEligibleSamples       1891954                       # number cycles where commit BW limit reached (Cycle)
system.cpu.dcache.demandHits::cpu.data        3323345                       # number of demand (read+write) hits (Count)
system.cpu.dcache.demandHits::total           3323345                       # number of demand (read+write) hits (Count)
system.cpu.dcache.overallHits::cpu.data       3323345                       # number of overall hits (Count)
system.cpu.dcache.overallHits::total          3323345                       # number of overall hits (Count)
system.cpu.dcache.demandMisses::cpu.data       376371                       # number of demand (read+write) misses (Count)
system.cpu.dcache.demandMisses::total          376371                       # number of demand (read+write) misses (Count)
system.cpu.dcache.overallMisses::cpu.data       376371                       # number of overall misses (Count)
system.cpu.dcache.overallMisses::total         376371                       # number of overall misses (Count)
system.cpu.dcache.demandMissLatency::cpu.data  16379798974                       # number of demand (read+write) miss ticks (Tick)
system.cpu.dcache.demandMissLatency::total  16379798974                       # number of demand (read+write) miss ticks (Tick)
system.cpu.dcache.overallMissLatency::cpu.data  16379798974                       # number of overall miss ticks (Tick)
system.cpu.dcache.overallMissLatency::total  16379798974                       # number of overall miss ticks (Tick)
system.cpu.dcache.demandAccesses::cpu.data      3699716                       # number of demand (read+write) accesses (Count)
system.cpu.dcache.demandAccesses::total       3699716                       # number of demand (read+write) accesses (Count)
system.cpu.dcache.overallAccesses::cpu.data      3699716                       # number of overall (read+write) accesses (Count)
system.cpu.dcache.overallAccesses::total      3699716                       # number of overall (read+write) accesses (Count)
system.cpu.dcache.demandMissRate::cpu.data     0.101730                       # miss rate for demand accesses (Ratio)
system.cpu.dcache.demandMissRate::total      0.101730                       # miss rate for demand accesses (Ratio)
system.cpu.dcache.overallMissRate::cpu.data     0.101730                       # miss rate for overall accesses (Ratio)
system.cpu.dcache.overallMissRate::total     0.101730                       # miss rate for overall accesses (Ratio)
system.cpu.dcache.demandAvgMissLatency::cpu.data 43520.353518                       # average overall miss latency ((Cycle/Count))
system.cpu.dcache.demandAvgMissLatency::total 43520.353518                       # average overall miss latency ((Cycle/Count))
system.cpu.dcache.overallAvgMissLatency::cpu.data 43520.353518                       # average overall miss latency ((Cycle/Count))
system.cpu.dcache.overallAvgMissLatency::total 43520.353518                       # average overall miss latency ((Cycle/Count))
system.cpu.dcache.blockedCycles::no_mshrs        61647                       # number of cycles access was blocked (Cycle)
system.cpu.dcache.blockedCycles::no_targets         2657                       # number of cycles access was blocked (Cycle)
system.cpu.dcache.blockedCauses::no_mshrs         1849                       # number of times access was blocked (Count)
system.cpu.dcache.blockedCauses::no_targets           72                       # number of times access was blocked (Count)
system.cpu.dcache.avgBlocked::no_mshrs      33.340725                       # average number of cycles each access was blocked ((Cycle/Count))
system.cpu.dcache.avgBlocked::no_targets    36.902778                       # average number of cycles each access was blocked ((Cycle/Count))
system.cpu.dcache.writebacks::writebacks        47851                       # number of writebacks (Count)
system.cpu.dcache.writebacks::total             47851                       # number of writebacks (Count)
system.cpu.dcache.demandMshrHits::cpu.data       278467                       # number of demand (read+write) MSHR hits (Count)
system.cpu.dcache.demandMshrHits::total        278467                       # number of demand (read+write) MSHR hits (Count)
system.cpu.dcache.overallMshrHits::cpu.data       278467                       # number of overall MSHR hits (Count)
system.cpu.dcache.overallMshrHits::total       278467                       # number of overall MSHR hits (Count)
system.cpu.dcache.demandMshrMisses::cpu.data        97904                       # number of demand (read+write) MSHR misses (Count)
system.cpu.dcache.demandMshrMisses::total        97904                       # number of demand (read+write) MSHR misses (Count)
system.cpu.dcache.overallMshrMisses::cpu.data        97904                       # number of overall MSHR misses (Count)
system.cpu.dcache.overallMshrMisses::total        97904                       # number of overall MSHR misses (Count)
system.cpu.dcache.demandMshrMissLatency::cpu.data   5016324974                       # number of demand (read+write) MSHR miss ticks (Tick)
system.cpu.dcache.demandMshrMissLatency::total   5016324974                       # number of demand (read+write) MSHR miss ticks (Tick)
system.cpu.dcache.overallMshrMissLatency::cpu.data   5016324974                       # number of overall MSHR miss ticks (Tick)
system.cpu.dcache.overallMshrMissLatency::total   5016324974                       # number of overall MSHR miss ticks (Tick)
system.cpu.dcache.demandMshrMissRate::cpu.data     0.026463                       # mshr miss ratio for demand accesses (Ratio)
system.cpu.dcache.demandMshrMissRate::total     0.026463                       # mshr miss ratio for demand accesses (Ratio)
system.cpu.dcache.overallMshrMissRate::cpu.data     0.026463                       # mshr miss ratio for overall accesses (Ratio)
system.cpu.dcache.overallMshrMissRate::total     0.026463                       # mshr miss ratio for overall accesses (Ratio)
system.cpu.dcache.demandAvgMshrMissLatency::cpu.data 51237.181055                       # average overall mshr miss latency ((Cycle/Count))
system.cpu.dcache.demandAvgMshrMissLatency::total 51237.181055                       # average overall mshr miss latency ((Cycle/Count))
system.cpu.dcache.overallAvgMshrMissLatency::cpu.data 51237.181055                       # average overall mshr miss latency ((Cycle/Count))
system.cpu.dcache.overallAvgMshrMissLatency::total 51237.181055                       # average overall mshr miss latency ((Cycle/Count))
system.cpu.dcache.replacements                  93838                       # number of replacements (Count)
system.cpu.dcache.ReadReq.hits::cpu.data      2341481                       # number of ReadReq hits (Count)
system.cpu.dcache.ReadReq.hits::total         2341481                       # number of ReadReq hits (Count)
system.cpu.dcache.ReadReq.misses::cpu.data       347531                       # number of ReadReq misses (Count)
system.cpu.dcache.ReadReq.misses::total        347531                       # number of ReadReq misses (Count)
system.cpu.dcache.ReadReq.missLatency::cpu.data  14390004000                       # number of ReadReq miss ticks (Tick)
system.cpu.dcache.ReadReq.missLatency::total  14390004000                       # number of ReadReq miss ticks (Tick)
system.cpu.dcache.ReadReq.accesses::cpu.data      2689012                       # number of ReadReq accesses(hits+misses) (Count)
system.cpu.dcache.ReadReq.accesses::total      2689012                       # number of ReadReq accesses(hits+misses) (Count)
system.cpu.dcache.ReadReq.missRate::cpu.data     0.129241                       # miss rate for ReadReq accesses (Ratio)
system.cpu.dcache.ReadReq.missRate::total     0.129241                       # miss rate for ReadReq accesses (Ratio)
system.cpu.dcache.ReadReq.avgMissLatency::cpu.data 41406.389646                       # average ReadReq miss latency ((Tick/Count))
system.cpu.dcache.ReadReq.avgMissLatency::total 41406.389646                       # average ReadReq miss latency ((Tick/Count))
system.cpu.dcache.ReadReq.mshrHits::cpu.data       278456                       # number of ReadReq MSHR hits (Count)
system.cpu.dcache.ReadReq.mshrHits::total       278456                       # number of ReadReq MSHR hits (Count)
system.cpu.dcache.ReadReq.mshrMisses::cpu.data        69075                       # number of ReadReq MSHR misses (Count)
system.cpu.dcache.ReadReq.mshrMisses::total        69075                       # number of ReadReq MSHR misses (Count)
system.cpu.dcache.ReadReq.mshrMissLatency::cpu.data   3055764500                       # number of ReadReq MSHR miss ticks (Tick)
system.cpu.dcache.ReadReq.mshrMissLatency::total   3055764500                       # number of ReadReq MSHR miss ticks (Tick)
system.cpu.dcache.ReadReq.mshrMissRate::cpu.data     0.025688                       # mshr miss rate for ReadReq accesses (Ratio)
system.cpu.dcache.ReadReq.mshrMissRate::total     0.025688                       # mshr miss rate for ReadReq accesses (Ratio)
system.cpu.dcache.ReadReq.avgMshrMissLatency::cpu.data 44238.356858                       # average ReadReq mshr miss latency ((Tick/Count))
system.cpu.dcache.ReadReq.avgMshrMissLatency::total 44238.356858                       # average ReadReq mshr miss latency ((Tick/Count))
system.cpu.dcache.WriteReq.hits::cpu.data       981864                       # number of WriteReq hits (Count)
system.cpu.dcache.WriteReq.hits::total         981864                       # number of WriteReq hits (Count)
system.cpu.dcache.WriteReq.misses::cpu.data        28840                       # number of WriteReq misses (Count)
system.cpu.dcache.WriteReq.misses::total        28840                       # number of WriteReq misses (Count)
system.cpu.dcache.WriteReq.missLatency::cpu.data   1989794974                       # number of WriteReq miss ticks (Tick)
system.cpu.dcache.WriteReq.missLatency::total   1989794974                       # number of WriteReq miss ticks (Tick)
system.cpu.dcache.WriteReq.accesses::cpu.data      1010704                       # number of WriteReq accesses(hits+misses) (Count)
system.cpu.dcache.WriteReq.accesses::total      1010704                       # number of WriteReq accesses(hits+misses) (Count)
system.cpu.dcache.WriteReq.missRate::cpu.data     0.028535                       # miss rate for WriteReq accesses (Ratio)
system.cpu.dcache.WriteReq.missRate::total     0.028535                       # miss rate for WriteReq accesses (Ratio)
system.cpu.dcache.WriteReq.avgMissLatency::cpu.data 68994.277878                       # average WriteReq miss latency ((Tick/Count))
system.cpu.dcache.WriteReq.avgMissLatency::total 68994.277878                       # average WriteReq miss latency ((Tick/Count))
system.cpu.dcache.WriteReq.mshrHits::cpu.data           11                       # number of WriteReq MSHR hits (Count)
system.cpu.dcache.WriteReq.mshrHits::total           11                       # number of WriteReq MSHR hits (Count)
system.cpu.dcache.WriteReq.mshrMisses::cpu.data        28829                       # number of WriteReq MSHR misses (Count)
system.cpu.dcache.WriteReq.mshrMisses::total        28829                       # number of WriteReq MSHR misses (Count)
system.cpu.dcache.WriteReq.mshrMissLatency::cpu.data   1960560474                       # number of WriteReq MSHR miss ticks (Tick)
system.cpu.dcache.WriteReq.mshrMissLatency::total   1960560474                       # number of WriteReq MSHR miss ticks (Tick)
system.cpu.dcache.WriteReq.mshrMissRate::cpu.data     0.028524                       # mshr miss rate for WriteReq accesses (Ratio)
system.cpu.dcache.WriteReq.mshrMissRate::total     0.028524                       # mshr miss rate for WriteReq accesses (Ratio)
system.cpu.dcache.WriteReq.avgMshrMissLatency::cpu.data 68006.537653                       # average WriteReq mshr miss latency ((Tick/Count))
system.cpu.dcache.WriteReq.avgMshrMissLatency::total 68006.537653                       # average WriteReq mshr miss latency ((Tick/Count))
system.cpu.dcache.power_state.pwrStateResidencyTicks::UNDEFINED   6652976000                       # Cumulative time (in ticks) in various power states (Tick)
system.cpu.dcache.tags.tagsInUse           508.788634                       # Average ticks per tags in use ((Tick/Count))
system.cpu.dcache.tags.totalRefs              3422057                       # Total number of references to valid blocks. (Count)
system.cpu.dcache.tags.sampledRefs              94350                       # Sample count of references to valid blocks. (Count)
system.cpu.dcache.tags.avgRefs              36.269815                       # Average number of references to valid blocks. ((Count/Count))
system.cpu.dcache.tags.warmupTick              198000                       # The tick when the warmup percentage was hit. (Tick)
system.cpu.dcache.tags.occupancies::cpu.data   508.788634                       # Average occupied blocks per tick, per requestor ((Count/Tick))
system.cpu.dcache.tags.avgOccs::cpu.data     0.993728                       # Average percentage of cache occupancy ((Ratio/Tick))
system.cpu.dcache.tags.avgOccs::total        0.993728                       # Average percentage of cache occupancy ((Ratio/Tick))
system.cpu.dcache.tags.occupanciesTaskId::1024          512                       # Occupied blocks per task id (Count)
system.cpu.dcache.tags.ageTaskId_1024::0           85                       # Occupied blocks per task id, per block age (Count)
system.cpu.dcache.tags.ageTaskId_1024::1          425                       # Occupied blocks per task id, per block age (Count)
system.cpu.dcache.tags.ageTaskId_1024::2            2                       # Occupied blocks per task id, per block age (Count)
system.cpu.dcache.tags.ratioOccsTaskId::1024            1                       # Ratio of occupied blocks and all blocks, per task id (Ratio)
system.cpu.dcache.tags.tagAccesses            7493782                       # Number of tag accesses (Count)
system.cpu.dcache.tags.dataAccesses           7493782                       # Number of data accesses (Count)
system.cpu.dcache.tags.power_state.pwrStateResidencyTicks::UNDEFINED   6652976000                       # Cumulative time (in ticks) in various power states (Tick)
system.cpu.decode.idleCycles                  1360372                       # Number of cycles decode is idle (Cycle)
system.cpu.decode.blockedCycles               6904776                       # Number of cycles decode is blocked (Cycle)
system.cpu.decode.runCycles                   4136502                       # Number of cycles decode is running (Cycle)
system.cpu.decode.unblockCycles                527476                       # Number of cycles decode is unblocking (Cycle)
system.cpu.decode.squashCycles                  82702                       # Number of cycles decode is squashing (Cycle)
system.cpu.decode.branchResolved              2284599                       # Number of times decode resolved a branch (Count)
system.cpu.decode.branchMispred                  1558                       # Number of times decode detected a branch misprediction (Count)
system.cpu.decode.decodedInsts               30819538                       # Number of instructions handled by decode (Count)
system.cpu.decode.squashedInsts                  7245                       # Number of squashed instructions handled by decode (Count)
system.cpu.dtb_walker_cache.blockedCycles::no_mshrs            0                       # number of cycles access was blocked (Cycle)
system.cpu.dtb_walker_cache.blockedCycles::no_targets            0                       # number of cycles access was blocked (Cycle)
system.cpu.dtb_walker_cache.blockedCauses::no_mshrs            0                       # number of times access was blocked (Count)
system.cpu.dtb_walker_cache.blockedCauses::no_targets            0                       # number of times access was blocked (Count)
system.cpu.dtb_walker_cache.avgBlocked::no_mshrs          nan                       # average number of cycles each access was blocked ((Cycle/Count))
system.cpu.dtb_walker_cache.avgBlocked::no_targets          nan                       # average number of cycles each access was blocked ((Cycle/Count))
system.cpu.dtb_walker_cache.replacements            0                       # number of replacements (Count)
system.cpu.dtb_walker_cache.power_state.pwrStateResidencyTicks::UNDEFINED   6652976000                       # Cumulative time (in ticks) in various power states (Tick)
system.cpu.dtb_walker_cache.tags.tagsInUse            0                       # Average ticks per tags in use ((Tick/Count))
system.cpu.dtb_walker_cache.tags.totalRefs            0                       # Total number of references to valid blocks. (Count)
system.cpu.dtb_walker_cache.tags.sampledRefs            0                       # Sample count of references to valid blocks. (Count)
system.cpu.dtb_walker_cache.tags.avgRefs          nan                       # Average number of references to valid blocks. ((Count/Count))
system.cpu.dtb_walker_cache.tags.warmupTick            0                       # The tick when the warmup percentage was hit. (Tick)
system.cpu.dtb_walker_cache.tags.tagAccesses            0                       # Number of tag accesses (Count)
system.cpu.dtb_walker_cache.tags.dataAccesses            0                       # Number of data accesses (Count)
system.cpu.dtb_walker_cache.tags.power_state.pwrStateResidencyTicks::UNDEFINED   6652976000                       # Cumulative time (in ticks) in various power states (Tick)
system.cpu.fetch.icacheStallCycles            1363164                       # Number of cycles fetch is stalled on an Icache miss (Cycle)
system.cpu.fetch.insts                       17072744                       # Number of instructions fetch has processed (Count)
system.cpu.fetch.branches                     3966049                       # Number of branches that fetch encountered (Count)
system.cpu.fetch.predictedBranches            2467830                       # Number of branches that fetch has predicted taken (Count)
system.cpu.fetch.cycles                      11553358                       # Number of cycles fetch has run and was not squashing or blocked (Cycle)
system.cpu.fetch.squashCycles                  168430                       # Number of cycles fetch has spent squashing (Cycle)
system.cpu.fetch.miscStallCycles                 1486                       # Number of cycles fetch has spent waiting on interrupts, or bad addresses, or out of MSHRs (Cycle)
system.cpu.fetch.pendingTrapStallCycles          9401                       # Number of stall cycles due to pending traps (Cycle)
system.cpu.fetch.pendingQuiesceStallCycles           22                       # Number of stall cycles due to pending quiesce instructions (Cycle)
system.cpu.fetch.icacheWaitRetryStallCycles          182                       # Number of stall cycles due to full MSHR (Cycle)
system.cpu.fetch.cacheLines                   1228089                       # Number of cache lines fetched (Count)
system.cpu.fetch.icacheSquashes                 12795                       # Number of outstanding Icache misses that were squashed (Count)
system.cpu.fetch.nisnDist::samples           13011828                       # Number of instructions fetched each cycle (Total) (Count)
system.cpu.fetch.nisnDist::mean              2.472272                       # Number of instructions fetched each cycle (Total) (Count)
system.cpu.fetch.nisnDist::stdev             3.315098                       # Number of instructions fetched each cycle (Total) (Count)
system.cpu.fetch.nisnDist::underflows               0      0.00%      0.00% # Number of instructions fetched each cycle (Total) (Count)
system.cpu.fetch.nisnDist::0                  7607755     58.47%     58.47% # Number of instructions fetched each cycle (Total) (Count)
system.cpu.fetch.nisnDist::1                   265864      2.04%     60.51% # Number of instructions fetched each cycle (Total) (Count)
system.cpu.fetch.nisnDist::2                   508375      3.91%     64.42% # Number of instructions fetched each cycle (Total) (Count)
system.cpu.fetch.nisnDist::3                   529440      4.07%     68.49% # Number of instructions fetched each cycle (Total) (Count)
system.cpu.fetch.nisnDist::4                   225811      1.74%     70.22% # Number of instructions fetched each cycle (Total) (Count)
system.cpu.fetch.nisnDist::5                   237881      1.83%     72.05% # Number of instructions fetched each cycle (Total) (Count)
system.cpu.fetch.nisnDist::6                   740673      5.69%     77.74% # Number of instructions fetched each cycle (Total) (Count)
system.cpu.fetch.nisnDist::7                   407070      3.13%     80.87% # Number of instructions fetched each cycle (Total) (Count)
system.cpu.fetch.nisnDist::8                  2488959     19.13%    100.00% # Number of instructions fetched each cycle (Total) (Count)
system.cpu.fetch.nisnDist::overflows                0      0.00%    100.00% # Number of instructions fetched each cycle (Total) (Count)
system.cpu.fetch.nisnDist::min_value                0                       # Number of instructions fetched each cycle (Total) (Count)
system.cpu.fetch.nisnDist::max_value                8                       # Number of instructions fetched each cycle (Total) (Count)
system.cpu.fetch.nisnDist::total             13011828                       # Number of instructions fetched each cycle (Total) (Count)
system.cpu.fetch.branchRate                  0.298066                       # Number of branch fetches per cycle (Ratio)
system.cpu.fetch.rate                        1.283091                       # Number of inst fetches per cycle ((Count/Cycle))
system.cpu.icache.demandHits::cpu.inst        1223417                       # number of demand (read+write) hits (Count)
system.cpu.icache.demandHits::total           1223417                       # number of demand (read+write) hits (Count)
system.cpu.icache.overallHits::cpu.inst       1223417                       # number of overall hits (Count)
system.cpu.icache.overallHits::total          1223417                       # number of overall hits (Count)
system.cpu.icache.demandMisses::cpu.inst         4670                       # number of demand (read+write) misses (Count)
system.cpu.icache.demandMisses::total            4670                       # number of demand (read+write) misses (Count)
system.cpu.icache.overallMisses::cpu.inst         4670                       # number of overall misses (Count)
system.cpu.icache.overallMisses::total           4670                       # number of overall misses (Count)
system.cpu.icache.demandMissLatency::cpu.inst    363433499                       # number of demand (read+write) miss ticks (Tick)
system.cpu.icache.demandMissLatency::total    363433499                       # number of demand (read+write) miss ticks (Tick)
system.cpu.icache.overallMissLatency::cpu.inst    363433499                       # number of overall miss ticks (Tick)
system.cpu.icache.overallMissLatency::total    363433499                       # number of overall miss ticks (Tick)
system.cpu.icache.demandAccesses::cpu.inst      1228087                       # number of demand (read+write) accesses (Count)
system.cpu.icache.demandAccesses::total       1228087                       # number of demand (read+write) accesses (Count)
system.cpu.icache.overallAccesses::cpu.inst      1228087                       # number of overall (read+write) accesses (Count)
system.cpu.icache.overallAccesses::total      1228087                       # number of overall (read+write) accesses (Count)
system.cpu.icache.demandMissRate::cpu.inst     0.003803                       # miss rate for demand accesses (Ratio)
system.cpu.icache.demandMissRate::total      0.003803                       # miss rate for demand accesses (Ratio)
system.cpu.icache.overallMissRate::cpu.inst     0.003803                       # miss rate for overall accesses (Ratio)
system.cpu.icache.overallMissRate::total     0.003803                       # miss rate for overall accesses (Ratio)
system.cpu.icache.demandAvgMissLatency::cpu.inst 77823.019058                       # average overall miss latency ((Cycle/Count))
system.cpu.icache.demandAvgMissLatency::total 77823.019058                       # average overall miss latency ((Cycle/Count))
system.cpu.icache.overallAvgMissLatency::cpu.inst 77823.019058                       # average overall miss latency ((Cycle/Count))
system.cpu.icache.overallAvgMissLatency::total 77823.019058                       # average overall miss latency ((Cycle/Count))
system.cpu.icache.blockedCycles::no_mshrs         1694                       # number of cycles access was blocked (Cycle)
system.cpu.icache.blockedCycles::no_targets            0                       # number of cycles access was blocked (Cycle)
system.cpu.icache.blockedCauses::no_mshrs           28                       # number of times access was blocked (Count)
system.cpu.icache.blockedCauses::no_targets            0                       # number of times access was blocked (Count)
system.cpu.icache.avgBlocked::no_mshrs      60.500000                       # average number of cycles each access was blocked ((Cycle/Count))
system.cpu.icache.avgBlocked::no_targets          nan                       # average number of cycles each access was blocked ((Cycle/Count))
system.cpu.icache.writebacks::writebacks         3229                       # number of writebacks (Count)
system.cpu.icache.writebacks::total              3229                       # number of writebacks (Count)
system.cpu.icache.demandMshrHits::cpu.inst          928                       # number of demand (read+write) MSHR hits (Count)
system.cpu.icache.demandMshrHits::total           928                       # number of demand (read+write) MSHR hits (Count)
system.cpu.icache.overallMshrHits::cpu.inst          928                       # number of overall MSHR hits (Count)
system.cpu.icache.overallMshrHits::total          928                       # number of overall MSHR hits (Count)
system.cpu.icache.demandMshrMisses::cpu.inst         3742                       # number of demand (read+write) MSHR misses (Count)
system.cpu.icache.demandMshrMisses::total         3742                       # number of demand (read+write) MSHR misses (Count)
system.cpu.icache.overallMshrMisses::cpu.inst         3742                       # number of overall MSHR misses (Count)
system.cpu.icache.overallMshrMisses::total         3742                       # number of overall MSHR misses (Count)
system.cpu.icache.demandMshrMissLatency::cpu.inst    293291499                       # number of demand (read+write) MSHR miss ticks (Tick)
system.cpu.icache.demandMshrMissLatency::total    293291499                       # number of demand (read+write) MSHR miss ticks (Tick)
system.cpu.icache.overallMshrMissLatency::cpu.inst    293291499                       # number of overall MSHR miss ticks (Tick)
system.cpu.icache.overallMshrMissLatency::total    293291499                       # number of overall MSHR miss ticks (Tick)
system.cpu.icache.demandMshrMissRate::cpu.inst     0.003047                       # mshr miss ratio for demand accesses (Ratio)
system.cpu.icache.demandMshrMissRate::total     0.003047                       # mshr miss ratio for demand accesses (Ratio)
system.cpu.icache.overallMshrMissRate::cpu.inst     0.003047                       # mshr miss ratio for overall accesses (Ratio)
system.cpu.icache.overallMshrMissRate::total     0.003047                       # mshr miss ratio for overall accesses (Ratio)
system.cpu.icache.demandAvgMshrMissLatency::cpu.inst 78378.273383                       # average overall mshr miss latency ((Cycle/Count))
system.cpu.icache.demandAvgMshrMissLatency::total 78378.273383                       # average overall mshr miss latency ((Cycle/Count))
system.cpu.icache.overallAvgMshrMissLatency::cpu.inst 78378.273383                       # average overall mshr miss latency ((Cycle/Count))
system.cpu.icache.overallAvgMshrMissLatency::total 78378.273383                       # average overall mshr miss latency ((Cycle/Count))
system.cpu.icache.replacements                   3229                       # number of replacements (Count)
system.cpu.icache.ReadReq.hits::cpu.inst      1223417                       # number of ReadReq hits (Count)
system.cpu.icache.ReadReq.hits::total         1223417                       # number of ReadReq hits (Count)
system.cpu.icache.ReadReq.misses::cpu.inst         4670                       # number of ReadReq misses (Count)
system.cpu.icache.ReadReq.misses::total          4670                       # number of ReadReq misses (Count)
system.cpu.icache.ReadReq.missLatency::cpu.inst    363433499                       # number of ReadReq miss ticks (Tick)
system.cpu.icache.ReadReq.missLatency::total    363433499                       # number of ReadReq miss ticks (Tick)
system.cpu.icache.ReadReq.accesses::cpu.inst      1228087                       # number of ReadReq accesses(hits+misses) (Count)
system.cpu.icache.ReadReq.accesses::total      1228087                       # number of ReadReq accesses(hits+misses) (Count)
system.cpu.icache.ReadReq.missRate::cpu.inst     0.003803                       # miss rate for ReadReq accesses (Ratio)
system.cpu.icache.ReadReq.missRate::total     0.003803                       # miss rate for ReadReq accesses (Ratio)
system.cpu.icache.ReadReq.avgMissLatency::cpu.inst 77823.019058                       # average ReadReq miss latency ((Tick/Count))
system.cpu.icache.ReadReq.avgMissLatency::total 77823.019058                       # average ReadReq miss latency ((Tick/Count))
system.cpu.icache.ReadReq.mshrHits::cpu.inst          928                       # number of ReadReq MSHR hits (Count)
system.cpu.icache.ReadReq.mshrHits::total          928                       # number of ReadReq MSHR hits (Count)
system.cpu.icache.ReadReq.mshrMisses::cpu.inst         3742                       # number of ReadReq MSHR misses (Count)
system.cpu.icache.ReadReq.mshrMisses::total         3742                       # number of ReadReq MSHR misses (Count)
system.cpu.icache.ReadReq.mshrMissLatency::cpu.inst    293291499                       # number of ReadReq MSHR miss ticks (Tick)
system.cpu.icache.ReadReq.mshrMissLatency::total    293291499                       # number of ReadReq MSHR miss ticks (Tick)
system.cpu.icache.ReadReq.mshrMissRate::cpu.inst     0.003047                       # mshr miss rate for ReadReq accesses (Ratio)
system.cpu.icache.ReadReq.mshrMissRate::total     0.003047                       # mshr miss rate for ReadReq accesses (Ratio)
system.cpu.icache.ReadReq.avgMshrMissLatency::cpu.inst 78378.273383                       # average ReadReq mshr miss latency ((Tick/Count))
system.cpu.icache.ReadReq.avgMshrMissLatency::total 78378.273383                       # average ReadReq mshr miss latency ((Tick/Count))
system.cpu.icache.power_state.pwrStateResidencyTicks::UNDEFINED   6652976000                       # Cumulative time (in ticks) in various power states (Tick)
system.cpu.icache.tags.tagsInUse           503.022793                       # Average ticks per tags in use ((Tick/Count))
system.cpu.icache.tags.totalRefs              1227158                       # Total number of references to valid blocks. (Count)
system.cpu.icache.tags.sampledRefs               3741                       # Sample count of references to valid blocks. (Count)
system.cpu.icache.tags.avgRefs             328.029404                       # Average number of references to valid blocks. ((Count/Count))
system.cpu.icache.tags.warmupTick               95000                       # The tick when the warmup percentage was hit. (Tick)
system.cpu.icache.tags.occupancies::cpu.inst   503.022793                       # Average occupied blocks per tick, per requestor ((Count/Tick))
system.cpu.icache.tags.avgOccs::cpu.inst     0.982466                       # Average percentage of cache occupancy ((Ratio/Tick))
system.cpu.icache.tags.avgOccs::total        0.982466                       # Average percentage of cache occupancy ((Ratio/Tick))
system.cpu.icache.tags.occupanciesTaskId::1024          512                       # Occupied blocks per task id (Count)
system.cpu.icache.tags.ageTaskId_1024::0           92                       # Occupied blocks per task id, per block age (Count)
system.cpu.icache.tags.ageTaskId_1024::1          312                       # Occupied blocks per task id, per block age (Count)
system.cpu.icache.tags.ageTaskId_1024::2            8                       # Occupied blocks per task id, per block age (Count)
system.cpu.icache.tags.ageTaskId_1024::3          100                       # Occupied blocks per task id, per block age (Count)
system.cpu.icache.tags.ratioOccsTaskId::1024            1                       # Ratio of occupied blocks and all blocks, per task id (Ratio)
system.cpu.icache.tags.tagAccesses            2459915                       # Number of tag accesses (Count)
system.cpu.icache.tags.dataAccesses           2459915                       # Number of data accesses (Count)
system.cpu.icache.tags.power_state.pwrStateResidencyTicks::UNDEFINED   6652976000                       # Cumulative time (in ticks) in various power states (Tick)
system.cpu.iew.idleCycles                           0                       # Number of cycles IEW is idle (Cycle)
system.cpu.iew.squashCycles                     82702                       # Number of cycles IEW is squashing (Cycle)
system.cpu.iew.blockCycles                    2945017                       # Number of cycles IEW is blocking (Cycle)
system.cpu.iew.unblockCycles                   121401                       # Number of cycles IEW is unblocking (Cycle)
system.cpu.iew.dispatchedInsts               29628748                       # Number of instructions dispatched to IQ (Count)
system.cpu.iew.dispSquashedInsts                 1640                       # Number of squashed instructions skipped by dispatch (Count)
system.cpu.iew.dispLoadInsts                  3034746                       # Number of dispatched load instructions (Count)
system.cpu.iew.dispStoreInsts                 1204643                       # Number of dispatched store instructions (Count)
system.cpu.iew.dispNonSpecInsts                 23760                       # Number of dispatched non-speculative instructions (Count)
system.cpu.iew.iqFullEvents                     36103                       # Number of times the IQ has become full, causing a stall (Count)
system.cpu.iew.lsqFullEvents                    65116                       # Number of times the LSQ has become full, causing a stall (Count)
system.cpu.iew.memOrderViolationEvents            244                       # Number of memory order violations (Count)
system.cpu.iew.predictedTakenIncorrect          53092                       # Number of branches that were predicted taken incorrectly (Count)
system.cpu.iew.predictedNotTakenIncorrect        58450                       # Number of branches that were predicted not taken incorrectly (Count)
system.cpu.iew.branchMispredicts               111542                       # Number of branch mispredicts detected at execute (Count)
system.cpu.iew.instsToCommit                 27824258                       # Cumulative count of insts sent to commit (Count)
system.cpu.iew.writebackCount                27784073                       # Cumulative count of insts written-back (Count)
system.cpu.iew.producerInst                  21562287                       # Number of instructions producing a value (Count)
system.cpu.iew.consumerInst                  35484180                       # Number of instructions consuming a value (Count)
system.cpu.iew.wbRate                        2.088093                       # Insts written-back per cycle ((Count/Cycle))
system.cpu.iew.wbFanout                      0.607659                       # Average fanout of values written-back ((Count/Count))
system.cpu.interrupts.clk_domain.clock           8000                       # Clock period in ticks (Tick)
system.cpu.itb_walker_cache.blockedCycles::no_mshrs            0                       # number of cycles access was blocked (Cycle)
system.cpu.itb_walker_cache.blockedCycles::no_targets            0                       # number of cycles access was blocked (Cycle)
system.cpu.itb_walker_cache.blockedCauses::no_mshrs            0                       # number of times access was blocked (Count)
system.cpu.itb_walker_cache.blockedCauses::no_targets            0                       # number of times access was blocked (Count)
system.cpu.itb_walker_cache.avgBlocked::no_mshrs          nan                       # average number of cycles each access was blocked ((Cycle/Count))
system.cpu.itb_walker_cache.avgBlocked::no_targets          nan                       # average number of cycles each access was blocked ((Cycle/Count))
system.cpu.itb_walker_cache.replacements            0                       # number of replacements (Count)
system.cpu.itb_walker_cache.power_state.pwrStateResidencyTicks::UNDEFINED   6652976000                       # Cumulative time (in ticks) in various power states (Tick)
system.cpu.itb_walker_cache.tags.tagsInUse            0                       # Average ticks per tags in use ((Tick/Count))
system.cpu.itb_walker_cache.tags.totalRefs            0                       # Total number of references to valid blocks. (Count)
system.cpu.itb_walker_cache.tags.sampledRefs            0                       # Sample count of references to valid blocks. (Count)
system.cpu.itb_walker_cache.tags.avgRefs          nan                       # Average number of references to valid blocks. ((Count/Count))
system.cpu.itb_walker_cache.tags.warmupTick            0                       # The tick when the warmup percentage was hit. (Tick)
system.cpu.itb_walker_cache.tags.tagAccesses            0                       # Number of tag accesses (Count)
system.cpu.itb_walker_cache.tags.dataAccesses            0                       # Number of data accesses (Count)
system.cpu.itb_walker_cache.tags.power_state.pwrStateResidencyTicks::UNDEFINED   6652976000                       # Cumulative time (in ticks) in various power states (Tick)
system.cpu.lsq0.forwLoads                      102231                       # Number of loads that had data forwarded from stores (Count)
system.cpu.lsq0.squashedLoads                  608906                       # Number of loads squashed (Count)
system.cpu.lsq0.ignoredResponses                  197                       # Number of memory responses ignored because the instruction is squashed (Count)
system.cpu.lsq0.memOrderViolation                 244                       # Number of memory ordering violations (Count)
system.cpu.lsq0.squashedStores                 193952                       # Number of stores squashed (Count)
system.cpu.lsq0.rescheduledLoads                   14                       # Number of loads that were rescheduled (Count)
system.cpu.lsq0.blockedByCache                   1463                       # Number of times an access to memory failed due to the cache being blocked (Count)
system.cpu.lsq0.loadToUse::samples            2425840                       # Distribution of cycle latency between the first time a load is issued and its completion (Unspecified)
system.cpu.lsq0.loadToUse::mean             12.625088                       # Distribution of cycle latency between the first time a load is issued and its completion (Unspecified)
system.cpu.lsq0.loadToUse::stdev            32.774479                       # Distribution of cycle latency between the first time a load is issued and its completion (Unspecified)
system.cpu.lsq0.loadToUse::0-9                2148564     88.57%     88.57% # Distribution of cycle latency between the first time a load is issued and its completion (Unspecified)
system.cpu.lsq0.loadToUse::10-19                14630      0.60%     89.17% # Distribution of cycle latency between the first time a load is issued and its completion (Unspecified)
system.cpu.lsq0.loadToUse::20-29                48679      2.01%     91.18% # Distribution of cycle latency between the first time a load is issued and its completion (Unspecified)
system.cpu.lsq0.loadToUse::30-39                 4267      0.18%     91.36% # Distribution of cycle latency between the first time a load is issued and its completion (Unspecified)
system.cpu.lsq0.loadToUse::40-49                 2968      0.12%     91.48% # Distribution of cycle latency between the first time a load is issued and its completion (Unspecified)
system.cpu.lsq0.loadToUse::50-59                11001      0.45%     91.93% # Distribution of cycle latency between the first time a load is issued and its completion (Unspecified)
system.cpu.lsq0.loadToUse::60-69                23800      0.98%     92.91% # Distribution of cycle latency between the first time a load is issued and its completion (Unspecified)
[...]
system.l3.tags.warmupTick                       68000                       # The tick when the warmup percentage was hit. (Tick)
system.l3.tags.occupancies::writebacks       7.921665                       # Average occupied blocks per tick, per requestor ((Count/Tick))
system.l3.tags.occupancies::cpu.inst       404.584165                       # Average occupied blocks per tick, per requestor ((Count/Tick))
system.l3.tags.occupancies::cpu.data      7280.720871                       # Average occupied blocks per tick, per requestor ((Count/Tick))
system.l3.tags.avgOccs::writebacks           0.000967                       # Average percentage of cache occupancy ((Ratio/Tick))
system.l3.tags.avgOccs::cpu.inst             0.049388                       # Average percentage of cache occupancy ((Ratio/Tick))
system.l3.tags.avgOccs::cpu.data             0.888760                       # Average percentage of cache occupancy ((Ratio/Tick))
system.l3.tags.avgOccs::total                0.939115                       # Average percentage of cache occupancy ((Ratio/Tick))
system.l3.tags.occupanciesTaskId::1024           8192                       # Occupied blocks per task id (Count)
system.l3.tags.ageTaskId_1024::0                  166                       # Occupied blocks per task id, per block age (Count)
system.l3.tags.ageTaskId_1024::1                  945                       # Occupied blocks per task id, per block age (Count)
system.l3.tags.ageTaskId_1024::2                  197                       # Occupied blocks per task id, per block age (Count)
system.l3.tags.ageTaskId_1024::3                 6884                       # Occupied blocks per task id, per block age (Count)
system.l3.tags.ratioOccsTaskId::1024                1                       # Ratio of occupied blocks and all blocks, per task id (Ratio)
system.l3.tags.tagAccesses                    2355322                       # Number of tag accesses (Count)
system.l3.tags.dataAccesses                   2355322                       # Number of data accesses (Count)
system.l3.tags.power_state.pwrStateResidencyTicks::UNDEFINED   6652976000                       # Cumulative time (in ticks) in various power states (Tick)
system.mem_ctrls.bytesRead::cpu.inst           187456                       # Number of bytes read from this memory (Byte)
system.mem_ctrls.bytesRead::cpu.data          2194112                       # Number of bytes read from this memory (Byte)
system.mem_ctrls.bytesRead::total             2381568                       # Number of bytes read from this memory (Byte)
system.mem_ctrls.bytesInstRead::cpu.inst       187456                       # Number of instructions bytes read from this memory (Byte)
system.mem_ctrls.bytesInstRead::total          187456                       # Number of instructions bytes read from this memory (Byte)
system.mem_ctrls.bytesWritten::writebacks       951168                       # Number of bytes written to this memory (Byte)
system.mem_ctrls.bytesWritten::total           951168                       # Number of bytes written to this memory (Byte)
system.mem_ctrls.numReads::cpu.inst              2929                       # Number of read requests responded to by this memory (Count)
system.mem_ctrls.numReads::cpu.data             34283                       # Number of read requests responded to by this memory (Count)
system.mem_ctrls.numReads::total                37212                       # Number of read requests responded to by this memory (Count)
system.mem_ctrls.numWrites::writebacks          14862                       # Number of write requests responded to by this memory (Count)
system.mem_ctrls.numWrites::total               14862                       # Number of write requests responded to by this memory (Count)
system.mem_ctrls.bwRead::cpu.inst            28176263                       # Total read bandwidth from this memory ((Byte/Second))
system.mem_ctrls.bwRead::cpu.data           329794065                       # Total read bandwidth from this memory ((Byte/Second))
system.mem_ctrls.bwRead::total              357970328                       # Total read bandwidth from this memory ((Byte/Second))
system.mem_ctrls.bwInstRead::cpu.inst        28176263                       # Instruction read bandwidth from this memory ((Byte/Second))
system.mem_ctrls.bwInstRead::total           28176263                       # Instruction read bandwidth from this memory ((Byte/Second))
system.mem_ctrls.bwWrite::writebacks        142968801                       # Write bandwidth from this memory ((Byte/Second))
system.mem_ctrls.bwWrite::total             142968801                       # Write bandwidth from this memory ((Byte/Second))
system.mem_ctrls.bwTotal::writebacks        142968801                       # Total bandwidth to/from this memory ((Byte/Second))
system.mem_ctrls.bwTotal::cpu.inst           28176263                       # Total bandwidth to/from this memory ((Byte/Second))
system.mem_ctrls.bwTotal::cpu.data          329794065                       # Total bandwidth to/from this memory ((Byte/Second))
system.mem_ctrls.bwTotal::total             500939129                       # Total bandwidth to/from this memory ((Byte/Second))
system.mem_ctrls.power_state.pwrStateResidencyTicks::UNDEFINED   6652976000                       # Cumulative time (in ticks) in various power states (Tick)
system.membus.transDist::ReadResp               19098                       # Transaction distribution (Count)
system.membus.transDist::WritebackDirty         14862                       # Transaction distribution (Count)
system.membus.transDist::CleanEvict             13849                       # Transaction distribution (Count)
system.membus.transDist::ReadExReq              18113                       # Transaction distribution (Count)
system.membus.transDist::ReadExResp             18113                       # Transaction distribution (Count)
system.membus.transDist::ReadSharedReq          19099                       # Transaction distribution (Count)
system.membus.pktCount_system.l3.mem_side_port::system.mem_ctrls.port       103134                       # Packet count per connected requestor and responder (Count)
system.membus.pktCount_system.l3.mem_side_port::total       103134                       # Packet count per connected requestor and responder (Count)
system.membus.pktCount::total                  103134                       # Packet count per connected requestor and responder (Count)
system.membus.pktSize_system.l3.mem_side_port::system.mem_ctrls.port      3332672                       # Cumulative packet size per connected requestor and responder (Byte)
system.membus.pktSize_system.l3.mem_side_port::total      3332672                       # Cumulative packet size per connected requestor and responder (Byte)
system.membus.pktSize::total                  3332672                       # Cumulative packet size per connected requestor and responder (Byte)
system.membus.snoops                                0                       # Total snoops (Count)
system.membus.snoopTraffic                          0                       # Total snoop traffic (Byte)
system.membus.snoopFanout::samples              39248                       # Request fanout histogram (Count)
system.membus.snoopFanout::mean                     0                       # Request fanout histogram (Count)
system.membus.snoopFanout::stdev                    0                       # Request fanout histogram (Count)
system.membus.snoopFanout::underflows               0      0.00%      0.00% # Request fanout histogram (Count)
system.membus.snoopFanout::0                    39248    100.00%    100.00% # Request fanout histogram (Count)
system.membus.snoopFanout::1                        0      0.00%    100.00% # Request fanout histogram (Count)
system.membus.snoopFanout::overflows                0      0.00%    100.00% # Request fanout histogram (Count)
system.membus.snoopFanout::min_value                0                       # Request fanout histogram (Count)
system.membus.snoopFanout::max_value                0                       # Request fanout histogram (Count)
system.membus.snoopFanout::total                39248                       # Request fanout histogram (Count)
system.membus.power_state.pwrStateResidencyTicks::UNDEFINED   6652976000                       # Cumulative time (in ticks) in various power states (Tick)
system.membus.reqLayer2.occupancy           136742732                       # Layer occupancy (ticks) (Tick)
system.membus.reqLayer2.utilization               0.0                       # Layer utilization (Ratio)
system.membus.respLayer1.occupancy          186055000                       # Layer occupancy (ticks) (Tick)
system.membus.respLayer1.utilization              0.0                       # Layer utilization (Ratio)
system.membus.snoop_filter.totRequests          68001                       # Total number of requests made to the snoop filter. (Count)
system.membus.snoop_filter.hitSingleRequests        28753                       # Number of requests hitting in the snoop filter with a single holder of the requested data. (Count)
system.membus.snoop_filter.hitMultiRequests            0                       # Number of requests hitting in the snoop filter with multiple (>1) holders of the requested data. (Count)
system.membus.snoop_filter.totSnoops                0                       # Total number of snoops made to the snoop filter. (Count)
system.membus.snoop_filter.hitSingleSnoops            0                       # Number of snoops hitting in the snoop filter with a single holder of the requested data. (Count)
system.membus.snoop_filter.hitMultiSnoops            0                       # Number of snoops hitting in the snoop filter with multiple (>1) holders of the requested data. (Count)
system.tol2bus.transDist::ReadResp              72816                       # Transaction distribution (Count)
system.tol2bus.transDist::WritebackDirty       101315                       # Transaction distribution (Count)
system.tol2bus.transDist::WritebackClean         3229                       # Transaction distribution (Count)
system.tol2bus.transDist::CleanEvict            68044                       # Transaction distribution (Count)
system.tol2bus.transDist::UpgradeReq             3558                       # Transaction distribution (Count)
system.tol2bus.transDist::UpgradeResp            3558                       # Transaction distribution (Count)
system.tol2bus.transDist::ReadExReq             25275                       # Transaction distribution (Count)
system.tol2bus.transDist::ReadExResp            25275                       # Transaction distribution (Count)
system.tol2bus.transDist::ReadCleanReq           3742                       # Transaction distribution (Count)
system.tol2bus.transDist::ReadSharedReq         69075                       # Transaction distribution (Count)
system.tol2bus.pktCount_system.cpu.icache.mem_side_port::system.l2.cpu_side_port        10709                       # Packet count per connected requestor and responder (Count)
system.tol2bus.pktCount_system.cpu.dcache.mem_side_port::system.l2.cpu_side_port       289654                       # Packet count per connected requestor and responder (Count)
system.tol2bus.pktCount::total                 300363                       # Packet count per connected requestor and responder (Count)
system.tol2bus.pktSize_system.cpu.icache.mem_side_port::system.l2.cpu_side_port       445888                       # Cumulative packet size per connected requestor and responder (Byte)
system.tol2bus.pktSize_system.cpu.dcache.mem_side_port::system.l2.cpu_side_port      9100864                       # Cumulative packet size per connected requestor and responder (Byte)
system.tol2bus.pktSize::total                 9546752                       # Cumulative packet size per connected requestor and responder (Byte)
system.tol2bus.snoops                           75524                       # Total snoops (Count)
system.tol2bus.snoopTraffic                   3421888                       # Total snoop traffic (Byte)
system.tol2bus.snoopFanout::samples            177171                       # Request fanout histogram (Count)
system.tol2bus.snoopFanout::mean             0.028837                       # Request fanout histogram (Count)
system.tol2bus.snoopFanout::stdev            0.167347                       # Request fanout histogram (Count)
system.tol2bus.snoopFanout::underflows              0      0.00%      0.00% # Request fanout histogram (Count)
system.tol2bus.snoopFanout::0                  172062     97.12%     97.12% # Request fanout histogram (Count)
system.tol2bus.snoopFanout::1                    5109      2.88%    100.00% # Request fanout histogram (Count)
system.tol2bus.snoopFanout::2                       0      0.00%    100.00% # Request fanout histogram (Count)
system.tol2bus.snoopFanout::3                       0      0.00%    100.00% # Request fanout histogram (Count)
system.tol2bus.snoopFanout::4                       0      0.00%    100.00% # Request fanout histogram (Count)
system.tol2bus.snoopFanout::overflows               0      0.00%    100.00% # Request fanout histogram (Count)
system.tol2bus.snoopFanout::min_value               0                       # Request fanout histogram (Count)
system.tol2bus.snoopFanout::max_value               1                       # Request fanout histogram (Count)
system.tol2bus.snoopFanout::total              177171                       # Request fanout histogram (Count)
system.tol2bus.power_state.pwrStateResidencyTicks::UNDEFINED   6652976000                       # Cumulative time (in ticks) in various power states (Tick)
system.tol2bus.reqLayer0.occupancy          150438500                       # Layer occupancy (ticks) (Tick)
system.tol2bus.reqLayer0.utilization              0.0                       # Layer utilization (Ratio)
system.tol2bus.respLayer0.occupancy           5612498                       # Layer occupancy (ticks) (Tick)
system.tol2bus.respLayer0.utilization             0.0                       # Layer utilization (Ratio)
system.tol2bus.respLayer1.occupancy         143305497                       # Layer occupancy (ticks) (Tick)
system.tol2bus.respLayer1.utilization             0.0                       # Layer utilization (Ratio)
system.tol2bus.snoop_filter.totRequests        198717                       # Total number of requests made to the snoop filter. (Count)
system.tol2bus.snoop_filter.hitSingleRequests       100625                       # Number of requests hitting in the snoop filter with a single holder of the requested data. (Count)
system.tol2bus.snoop_filter.hitMultiRequests           12                       # Number of requests hitting in the snoop filter with multiple (>1) holders of the requested data. (Count)
system.tol2bus.snoop_filter.totSnoops            5097                       # Total number of snoops made to the snoop filter. (Count)
system.tol2bus.snoop_filter.hitSingleSnoops         5097                       # Number of snoops hitting in the snoop filter with a single holder of the requested data. (Count)
system.tol2bus.snoop_filter.hitMultiSnoops            0                       # Number of snoops hitting in the snoop filter with multiple (>1) holders of the requested data. (Count)
system.tol3bus.transDist::ReadResp              51528                       # Transaction distribution (Count)
system.tol3bus.transDist::WritebackDirty        68326                       # Transaction distribution (Count)
system.tol3bus.transDist::CleanEvict            32099                       # Transaction distribution (Count)
system.tol3bus.transDist::UpgradeReq                2                       # Transaction distribution (Count)
system.tol3bus.transDist::UpgradeResp               2                       # Transaction distribution (Count)
system.tol3bus.transDist::ReadExReq             21989                       # Transaction distribution (Count)
system.tol3bus.transDist::ReadExResp            21989                       # Transaction distribution (Count)
system.tol3bus.transDist::ReadSharedReq         51529                       # Transaction distribution (Count)
system.tol3bus.pktCount_system.l2.mem_side_port::system.l3.cpu_side_port       218398                       # Packet count per connected requestor and responder (Count)
system.tol3bus.pktSize_system.l2.mem_side_port::system.l3.cpu_side_port      8126784                       # Cumulative packet size per connected requestor and responder (Byte)
system.tol3bus.snoops                           29066                       # Total snoops (Count)
system.tol3bus.snoopTraffic                    951168                       # Total snoop traffic (Byte)
system.tol3bus.snoopFanout::samples            102586                       # Request fanout histogram (Count)
system.tol3bus.snoopFanout::mean             0.010781                       # Request fanout histogram (Count)
system.tol3bus.snoopFanout::stdev            0.103272                       # Request fanout histogram (Count)
system.tol3bus.snoopFanout::underflows              0      0.00%      0.00% # Request fanout histogram (Count)
system.tol3bus.snoopFanout::0                  101480     98.92%     98.92% # Request fanout histogram (Count)
system.tol3bus.snoopFanout::1                    1106      1.08%    100.00% # Request fanout histogram (Count)
system.tol3bus.snoopFanout::overflows               0      0.00%    100.00% # Request fanout histogram (Count)
system.tol3bus.snoopFanout::min_value               0                       # Request fanout histogram (Count)
system.tol3bus.snoopFanout::max_value               1                       # Request fanout histogram (Count)
system.tol3bus.snoopFanout::total              102586                       # Request fanout histogram (Count)
system.tol3bus.power_state.pwrStateResidencyTicks::UNDEFINED   6652976000                       # Cumulative time (in ticks) in various power states (Tick)
system.tol3bus.reqLayer0.occupancy          125903500                       # Layer occupancy (ticks) (Tick)
system.tol3bus.reqLayer0.utilization              0.0                       # Layer utilization (Ratio)
system.tol3bus.respLayer0.occupancy         110276500                       # Layer occupancy (ticks) (Tick)
system.tol3bus.respLayer0.utilization             0.0                       # Layer utilization (Ratio)
system.tol3bus.snoop_filter.totRequests        144879                       # Total number of requests made to the snoop filter. (Count)
system.tol3bus.snoop_filter.hitSingleRequests        71364                       # Number of requests hitting in the snoop filter with a single holder of the requested data. (Count)
system.tol3bus.snoop_filter.hitMultiRequests            0                       # Number of requests hitting in the snoop filter with multiple (>1) holders of the requested data. (Count)
system.tol3bus.snoop_filter.totSnoops            1106                       # Total number of snoops made to the snoop filter. (Count)
system.tol3bus.snoop_filter.hitSingleSnoops         1106                       # Number of snoops hitting in the snoop filter with a single holder of the requested data. (Count)
system.tol3bus.snoop_filter.hitMultiSnoops            0                       # Number of snoops hitting in the snoop filter with multiple (>1) holders of the requested data. (Count)
system.voltage_domain.voltage                       1                       # Voltage in Volts (Volt)
system.workload.inst.arm                            0                       # number of arm instructions executed (Count)
system.workload.inst.quiesce                        0                       # number of quiesce instructions executed (Count)

---------- End Simulation Statistics   ----------
