
---------- Begin Simulation Statistics ----------
simSeconds                                   0.006417                       # Number of seconds simulated (Second)
simTicks                                   6417099000                       # Number of ticks simulated (Tick)
finalTick                                  6417099000                       # Number of ticks from beginning of simulation (restored from checkpoints and never reset) (Tick)
simFreq                                  1000000000000                       # The number of ticks per simulated second ((Tick/Second))
hostSeconds                                    836.30                       # Real time elapsed on the host (Second)
hostTickRate                                  7673203                       # The number of ticks simulated per host second (ticks/s) ((Tick/Second))
hostMemory                                    8907220                       # Number of bytes of host memory used (Byte)
simInsts                                     26186686                       # Number of instructions simulated (Count)
simOps                                       49975448                       # Number of ops (including micro ops) simulated (Count)
hostInstRate                                    31312                       # Simulator instruction rate (inst/s) ((Count/Second))
hostOpRate                                      59758                       # Simulator op (including micro ops) rate (op/s) ((Count/Second))
system.clk_domain.clock                          1000                       # Clock period in ticks (Tick)
system.cpu0.numCycles                        12832680                       # Number of cpu cycles simulated (Cycle)
system.cpu0.numWorkItemsStarted                     0                       # Number of work items this cpu started (Count)
system.cpu0.numWorkItemsCompleted                   0                       # Number of work items this cpu completed (Count)
system.cpu0.instsAdded                       29731770                       # Number of instructions added to the IQ (excludes non-spec) (Count)
system.cpu0.nonSpecInstsAdded                   69252                       # Number of non-speculative instructions added to the IQ (Count)
system.cpu0.instsIssued                      28158991                       # Number of instructions issued (Count)
system.cpu0.squashedInstsIssued                111050                       # Number of squashed instructions issued (Count)
system.cpu0.squashedInstsExamined             4813298                       # Number of squashed instructions iterated over during squash; mainly for profiling (Count)
system.cpu0.squashedOperandsExamined          6631864                       # Number of squashed operands that are examined and possibly removed from graph (Count)
system.cpu0.squashedNonSpecRemoved              40092                       # Number of squashed non-spec instructions that were removed (Count)
system.cpu0.numIssuedDist::samples           12542846                       # Number of insts issued each cycle (Count)
system.cpu0.numIssuedDist::mean              2.245024                       # Number of insts issued each cycle (Count)
system.cpu0.numIssuedDist::stdev             2.610195                       # Number of insts issued each cycle (Count)
system.cpu0.numIssuedDist::underflows               0      0.00%      0.00% # Number of insts issued each cycle (Count)
system.cpu0.numIssuedDist::0                  5966489     47.57%     47.57% # Number of insts issued each cycle (Count)
system.cpu0.numIssuedDist::1                   825025      6.58%     54.15% # Number of insts issued each cycle (Count)
system.cpu0.numIssuedDist::2                   727285      5.80%     59.94% # Number of insts issued each cycle (Count)
system.cpu0.numIssuedDist::3                  1051360      8.38%     68.33% # Number of insts issued each cycle (Count)
system.cpu0.numIssuedDist::4                   764457      6.09%     74.42% # Number of insts issued each cycle (Count)
system.cpu0.numIssuedDist::5                   897684      7.16%     81.58% # Number of insts issued each cycle (Count)
system.cpu0.numIssuedDist::6                  1254121     10.00%     91.58% # Number of insts issued each cycle (Count)
system.cpu0.numIssuedDist::7                   797058      6.35%     97.93% # Number of insts issued each cycle (Count)
system.cpu0.numIssuedDist::8                   259367      2.07%    100.00% # Number of insts issued each cycle (Count)
system.cpu0.numIssuedDist::overflows                0      0.00%    100.00% # Number of insts issued each cycle (Count)
system.cpu0.numIssuedDist::min_value                0                       # Number of insts issued each cycle (Count)
system.cpu0.numIssuedDist::max_value                8                       # Number of insts issued each cycle (Count)
system.cpu0.numIssuedDist::total             12542846                       # Number of insts issued each cycle (Count)
system.cpu0.statFuBusy::No_OpClass                  0      0.00%      0.00% # attempts to use FU when none available (Count)
system.cpu0.statFuBusy::IntAlu                1240214     97.06%     97.06% # attempts to use FU when none available (Count)
system.cpu0.statFuBusy::IntMult                     0      0.00%     97.06% # attempts to use FU when none available (Count)
system.cpu0.statFuBusy::IntDiv                      0      0.00%     97.06% # attempts to use FU when none available (Count)
system.cpu0.statFuBusy::FloatAdd                    0      0.00%     97.06% # attempts to use FU when none available (Count)
system.cpu0.statFuBusy::FloatCmp                    0      0.00%     97.06% # attempts to use FU when none available (Count)
system.cpu0.statFuBusy::FloatCvt                    3      0.00%     97.06% # attempts to use FU when none available (Count)
system.cpu0.statFuBusy::FloatMult                   0      0.00%     97.06% # attempts to use FU when none available (Count)
system.cpu0.statFuBusy::FloatMultAcc                0      0.00%     97.06% # attempts to use FU when none available (Count)
system.cpu0.statFuBusy::FloatDiv                    0      0.00%     97.06% # attempts to use FU when none available (Count)
system.cpu0.statFuBusy::FloatMisc                   0      0.00%     97.06% # attempts to use FU when none available (Count)
system.cpu0.statFuBusy::FloatSqrt                   0      0.00%     97.06% # attempts to use FU when none available (Count)
system.cpu0.statFuBusy::SimdAdd                     1      0.00%     97.06% # attempts to use FU when none available (Count)
system.cpu0.statFuBusy::SimdAddAcc                  0      0.00%     97.06% # attempts to use FU when none available (Count)
system.cpu0.statFuBusy::SimdAlu                   132      0.01%     97.08% # attempts to use FU when none available (Count)
system.cpu0.statFuBusy::SimdCmp                     0      0.00%     97.08% # attempts to use FU when none available (Count)
system.cpu0.statFuBusy::SimdCvt                  1013      0.08%     97.15% # attempts to use FU when none available (Count)
system.cpu0.statFuBusy::SimdMisc                   14      0.00%     97.16% # attempts to use FU when none available (Count)
system.cpu0.statFuBusy::SimdMult                    0      0.00%     97.16% # attempts to use FU when none available (Count)
system.cpu0.statFuBusy::SimdMultAcc                 0      0.00%     97.16% # attempts to use FU when none available (Count)
system.cpu0.statFuBusy::SimdShift                  25      0.00%     97.16% # attempts to use FU when none available (Count)
system.cpu0.statFuBusy::SimdShiftAcc                0      0.00%     97.16% # attempts to use FU when none available (Count)
system.cpu0.statFuBusy::SimdDiv                     0      0.00%     97.16% # attempts to use FU when none available (Count)
system.cpu0.statFuBusy::SimdSqrt                    0      0.00%     97.16% # attempts to use FU when none available (Count)
system.cpu0.statFuBusy::SimdFloatAdd                0      0.00%     97.16% # attempts to use FU when none available (Count)
system.cpu0.statFuBusy::SimdFloatAlu                0      0.00%     97.16% # attempts to use FU when none available (Count)
system.cpu0.statFuBusy::SimdFloatCmp                0      0.00%     97.16% # attempts to use FU when none available (Count)
system.cpu0.statFuBusy::SimdFloatCvt                0      0.00%     97.16% # attempts to use FU when none available (Count)
system.cpu0.statFuBusy::SimdFloatDiv                0      0.00%     97.16% # attempts to use FU when none available (Count)
system.cpu0.statFuBusy::SimdFloatMisc               0      0.00%     97.16% # attempts to use FU when none available (Count)
system.cpu0.statFuBusy::SimdFloatMult               0      0.00%     97.16% # attempts to use FU when none available (Count)
system.cpu0.statFuBusy::SimdFloatMultAcc            0      0.00%     97.16% # attempts to use FU when none available (Count)
system.cpu0.statFuBusy::SimdFloatSqrt               0      0.00%     97.16% # attempts to use FU when none available (Count)
system.cpu0.statFuBusy::SimdReduceAdd               0      0.00%     97.16% # attempts to use FU when none available (Count)
system.cpu0.statFuBusy::SimdReduceAlu               0      0.00%     97.16% # attempts to use FU when none available (Count)
system.cpu0.statFuBusy::SimdReduceCmp               0      0.00%     97.16% # attempts to use FU when none available (Count)
system.cpu0.statFuBusy::SimdFloatReduceAdd            0      0.00%     97.16% # attempts to use FU when none available (Count)
system.cpu0.statFuBusy::SimdFloatReduceCmp            0      0.00%     97.16% # attempts to use FU when none available (Count)
system.cpu0.statFuBusy::SimdAes                     0      0.00%     97.16% # attempts to use FU when none available (Count)
system.cpu0.statFuBusy::SimdAesMix                  0      0.00%     97.16% # attempts to use FU when none available (Count)
system.cpu0.statFuBusy::SimdSha1Hash                0      0.00%     97.16% # attempts to use FU when none available (Count)
system.cpu0.statFuBusy::SimdSha1Hash2               0      0.00%     97.16% # attempts to use FU when none available (Count)
system.cpu0.statFuBusy::SimdSha256Hash              0      0.00%     97.16% # attempts to use FU when none available (Count)
system.cpu0.statFuBusy::SimdSha256Hash2             0      0.00%     97.16% # attempts to use FU when none available (Count)
system.cpu0.statFuBusy::SimdShaSigma2               0      0.00%     97.16% # attempts to use FU when none available (Count)
system.cpu0.statFuBusy::SimdShaSigma3               0      0.00%     97.16% # attempts to use FU when none available (Count)
system.cpu0.statFuBusy::SimdPredAlu                 0      0.00%     97.16% # attempts to use FU when none available (Count)
system.cpu0.statFuBusy::MemRead                 25753      2.02%     99.17% # attempts to use FU when none available (Count)
system.cpu0.statFuBusy::MemWrite                 9567      0.75%     99.92% # attempts to use FU when none available (Count)
system.cpu0.statFuBusy::FloatMemRead              745      0.06%     99.98% # attempts to use FU when none available (Count)
system.cpu0.statFuBusy::FloatMemWrite             253      0.02%    100.00% # attempts to use FU when none available (Count)
system.cpu0.statFuBusy::IprAccess                   0      0.00%    100.00% # attempts to use FU when none available (Count)
system.cpu0.statFuBusy::InstPrefetch                0      0.00%    100.00% # attempts to use FU when none available (Count)
system.cpu0.statIssuedInstType_0::No_OpClass       106549      0.38%      0.38% # Number of instructions issued per FU type, per thread (Count)
system.cpu0.statIssuedInstType_0::IntAlu     23832908     84.64%     85.02% # Number of instructions issued per FU type, per thread (Count)
system.cpu0.statIssuedInstType_0::IntMult       121634      0.43%     85.45% # Number of instructions issued per FU type, per thread (Count)
system.cpu0.statIssuedInstType_0::IntDiv        40507      0.14%     85.59% # Number of instructions issued per FU type, per thread (Count)
system.cpu0.statIssuedInstType_0::FloatAdd         8620      0.03%     85.62% # Number of instructions issued per FU type, per thread (Count)
system.cpu0.statIssuedInstType_0::FloatCmp            0      0.00%     85.62% # Number of instructions issued per FU type, per thread (Count)
system.cpu0.statIssuedInstType_0::FloatCvt         2543      0.01%     85.63% # Number of instructions issued per FU type, per thread (Count)
system.cpu0.statIssuedInstType_0::FloatMult            0      0.00%     85.63% # Number of instructions issued per FU type, per thread (Count)
system.cpu0.statIssuedInstType_0::FloatMultAcc            0      0.00%     85.63% # Number of instructions issued per FU type, per thread (Count)
system.cpu0.statIssuedInstType_0::FloatDiv            0      0.00%     85.63% # Number of instructions issued per FU type, per thread (Count)
system.cpu0.statIssuedInstType_0::FloatMisc            0      0.00%     85.63% # Number of instructions issued per FU type, per thread (Count)
system.cpu0.statIssuedInstType_0::FloatSqrt            0      0.00%     85.63% # Number of instructions issued per FU type, per thread (Count)
system.cpu0.statIssuedInstType_0::SimdAdd         7795      0.03%     85.66% # Number of instructions issued per FU type, per thread (Count)
system.cpu0.statIssuedInstType_0::SimdAddAcc            0      0.00%     85.66% # Number of instructions issued per FU type, per thread (Count)
system.cpu0.statIssuedInstType_0::SimdAlu        16043      0.06%     85.72% # Number of instructions issued per FU type, per thread (Count)
system.cpu0.statIssuedInstType_0::SimdCmp            8      0.00%     85.72% # Number of instructions issued per FU type, per thread (Count)
system.cpu0.statIssuedInstType_0::SimdCvt        16868      0.06%     85.78% # Number of instructions issued per FU type, per thread (Count)
system.cpu0.statIssuedInstType_0::SimdMisc        14912      0.05%     85.83% # Number of instructions issued per FU type, per thread (Count)
system.cpu0.statIssuedInstType_0::SimdMult            0      0.00%     85.83% # Number of instructions issued per FU type, per thread (Count)
system.cpu0.statIssuedInstType_0::SimdMultAcc            0      0.00%     85.83% # Number of instructions issued per FU type, per thread (Count)
system.cpu0.statIssuedInstType_0::SimdShift         2324      0.01%     85.84% # Number of instructions issued per FU type, per thread (Count)
system.cpu0.statIssuedInstType_0::SimdShiftAcc            0      0.00%     85.84% # Number of instructions issued per FU type, per thread (Count)
system.cpu0.statIssuedInstType_0::SimdDiv            0      0.00%     85.84% # Number of instructions issued per FU type, per thread (Count)
system.cpu0.statIssuedInstType_0::SimdSqrt            0      0.00%     85.84% # Number of instructions issued per FU type, per thread (Count)
system.cpu0.statIssuedInstType_0::SimdFloatAdd            4      0.00%     85.84% # Number of instructions issued per FU type, per thread (Count)
system.cpu0.statIssuedInstType_0::SimdFloatAlu            0      0.00%     85.84% # Number of instructions issued per FU type, per thread (Count)
system.cpu0.statIssuedInstType_0::SimdFloatCmp            0      0.00%     85.84% # Number of instructions issued per FU type, per thread (Count)
system.cpu0.statIssuedInstType_0::SimdFloatCvt           10      0.00%     85.84% # Number of instructions issued per FU type, per thread (Count)
system.cpu0.statIssuedInstType_0::SimdFloatDiv            2      0.00%     85.84% # Number of instructions issued per FU type, per thread (Count)
system.cpu0.statIssuedInstType_0::SimdFloatMisc            0      0.00%     85.84% # Number of instructions issued per FU type, per thread (Count)
system.cpu0.statIssuedInstType_0::SimdFloatMult            0      0.00%     85.84% # Number of instructions issued per FU type, per thread (Count)
system.cpu0.statIssuedInstType_0::SimdFloatMultAcc            0      0.00%     85.84% # Number of instructions issued per FU type, per thread (Count)
system.cpu0.statIssuedInstType_0::SimdFloatSqrt            0      0.00%     85.84% # Number of instructions issued per FU type, per thread (Count)
system.cpu0.statIssuedInstType_0::SimdReduceAdd            0      0.00%     85.84% # Number of instructions issued per FU type, per thread (Count)
system.cpu0.statIssuedInstType_0::SimdReduceAlu            0      0.00%     85.84% # Number of instructions issued per FU type, per thread (Count)
system.cpu0.statIssuedInstType_0::SimdReduceCmp            0      0.00%     85.84% # Number of instructions issued per FU type, per thread (Count)
system.cpu0.statIssuedInstType_0::SimdFloatReduceAdd            0      0.00%     85.84% # Number of instructions issued per FU type, per thread (Count)
system.cpu0.statIssuedInstType_0::SimdFloatReduceCmp            0      0.00%     85.84% # Number of instructions issued per FU type, per thread (Count)
system.cpu0.statIssuedInstType_0::SimdAes            0      0.00%     85.84% # Number of instructions issued per FU type, per thread (Count)
system.cpu0.statIssuedInstType_0::SimdAesMix            0      0.00%     85.84% # Number of instructions issued per FU type, per thread (Count)
system.cpu0.statIssuedInstType_0::SimdSha1Hash            0      0.00%     85.84% # Number of instructions issued per FU type, per thread (Count)
system.cpu0.statIssuedInstType_0::SimdSha1Hash2            0      0.00%     85.84% # Number of instructions issued per FU type, per thread (Count)
system.cpu0.statIssuedInstType_0::SimdSha256Hash            0      0.00%     85.84% # Number of instructions issued per FU type, per thread (Count)
system.cpu0.statIssuedInstType_0::SimdSha256Hash2            0      0.00%     85.84% # Number of instructions issued per FU type, per thread (Count)
system.cpu0.statIssuedInstType_0::SimdShaSigma2            0      0.00%     85.84% # Number of instructions issued per FU type, per thread (Count)
system.cpu0.statIssuedInstType_0::SimdShaSigma3            0      0.00%     85.84% # Number of instructions issued per FU type, per thread (Count)
system.cpu0.statIssuedInstType_0::SimdPredAlu            0      0.00%     85.84% # Number of instructions issued per FU type, per thread (Count)
system.cpu0.statIssuedInstType_0::MemRead      2834937     10.07%     95.90% # Number of instructions issued per FU type, per thread (Count)
system.cpu0.statIssuedInstType_0::MemWrite      1110165      3.94%     99.85% # Number of instructions issued per FU type, per thread (Count)
system.cpu0.statIssuedInstType_0::FloatMemRead        25430      0.09%     99.94% # Number of instructions issued per FU type, per thread (Count)
system.cpu0.statIssuedInstType_0::FloatMemWrite        17732      0.06%    100.00% # Number of instructions issued per FU type, per thread (Count)
system.cpu0.statIssuedInstType_0::IprAccess            0      0.00%    100.00% # Number of instructions issued per FU type, per thread (Count)
system.cpu0.statIssuedInstType_0::InstPrefetch            0      0.00%    100.00% # Number of instructions issued per FU type, per thread (Count)
system.cpu0.statIssuedInstType_0::total      28158991                       # Number of instructions issued per FU type, per thread (Count)
system.cpu0.issueRate                        2.194319                       # Inst issue rate ((Count/Cycle))
system.cpu0.fuBusy                            1277720                       # FU busy when requested (Count)
system.cpu0.fuBusyRate                       0.045375                       # FU busy rate (busy events/executed inst) ((Count/Count))
system.cpu0.intInstQueueReads                70014909                       # Number of integer instruction queue reads (Count)
system.cpu0.intInstQueueWrites               34453251                       # Number of integer instruction queue writes (Count)
system.cpu0.intInstQueueWakeupAccesses       27794836                       # Number of integer instruction queue wakeup accesses (Count)
system.cpu0.fpInstQueueReads                   234689                       # Number of floating instruction queue reads (Count)
system.cpu0.fpInstQueueWrites                  161310                       # Number of floating instruction queue writes (Count)
system.cpu0.fpInstQueueWakeupAccesses          112650                       # Number of floating instruction queue wakeup accesses (Count)
system.cpu0.vecInstQueueReads                       0                       # Number of vector instruction queue reads (Count)
system.cpu0.vecInstQueueWrites                      0                       # Number of vector instruction queue writes (Count)
system.cpu0.vecInstQueueWakeupAccesses              0                       # Number of vector instruction queue wakeup accesses (Count)
system.cpu0.intAluAccesses                   29211819                       # Number of integer alu accesses (Count)
system.cpu0.fpAluAccesses                      118343                       # Number of floating point alu accesses (Count)
system.cpu0.vecAluAccesses                          0                       # Number of vector alu accesses (Count)
system.cpu0.numInsts                         28019988                       # Number of executed instructions (Count)
system.cpu0.numLoadInsts                      2822863                       # Number of load instructions executed (Count)
system.cpu0.numSquashedInsts                   139003                       # Number of squashed instructions skipped in execute (Count)
system.cpu0.numSwp                                  0                       # Number of swp insts executed (Count)
system.cpu0.numNop                                  0                       # Number of nop insts executed (Count)
system.cpu0.numRefs                           3940628                       # Number of memory reference insts executed (Count)
system.cpu0.numBranches                       3384542                       # Number of branches executed (Count)
system.cpu0.numStoreInsts                     1117765                       # Number of stores executed (Count)
system.cpu0.numRate                          2.183487                       # Inst execution rate ((Count/Cycle))
system.cpu0.timesIdled                           2638                       # Number of times that the entire CPU went into an idle state and unscheduled itself (Count)
system.cpu0.idleCycles                         289834                       # Total number of cycles that the CPU has spent unscheduled due to idling (Cycle)
system.cpu0.committedInsts                   13093343                       # Number of Instructions Simulated (Count)
system.cpu0.committedOps                     24987724                       # Number of Ops (including micro ops) Simulated (Count)
system.cpu0.cpi                              0.980092                       # CPI: Cycles Per Instruction ((Cycle/Count))
system.cpu0.totalCpi                         0.980092                       # CPI: Total CPI of All Threads ((Cycle/Count))
system.cpu0.ipc                              1.020312                       # IPC: Instructions Per Cycle ((Count/Cycle))
system.cpu0.totalIpc                         1.020312                       # IPC: Total IPC of All Threads ((Count/Cycle))
system.cpu0.intRegfileReads                  39881893                       # Number of integer regfile reads (Count)
system.cpu0.intRegfileWrites                 23432278                       # Number of integer regfile writes (Count)
system.cpu0.fpRegfileReads                     152674                       # Number of floating regfile reads (Count)
system.cpu0.fpRegfileWrites                     84917                       # Number of floating regfile writes (Count)
system.cpu0.ccRegfileReads                   19111752                       # number of cc regfile reads (Count)
system.cpu0.ccRegfileWrites                  12166334                       # number of cc regfile writes (Count)
system.cpu0.miscRegfileReads                 11018701                       # number of misc regfile reads (Count)
system.cpu0.miscRegfileWrites                    1296                       # number of misc regfile writes (Count)
system.cpu0.MemDepUnit__0.insertedLoads       3061408                       # Number of loads inserted to the mem dependence unit. (Count)
system.cpu0.MemDepUnit__0.insertedStores      1217821                       # Number of stores inserted to the mem dependence unit. (Count)
system.cpu0.MemDepUnit__0.conflictingLoads       228120                       # Number of conflicting loads. (Count)
system.cpu0.MemDepUnit__0.conflictingStores        69726                       # Number of conflicting stores. (Count)
system.cpu0.MemDepUnit__1.insertedLoads             0                       # Number of loads inserted to the mem dependence unit. (Count)
system.cpu0.MemDepUnit__1.insertedStores            0                       # Number of stores inserted to the mem dependence unit. (Count)
system.cpu0.MemDepUnit__1.conflictingLoads            0                       # Number of conflicting loads. (Count)
system.cpu0.MemDepUnit__1.conflictingStores            0                       # Number of conflicting stores. (Count)
system.cpu0.MemDepUnit__2.insertedLoads             0                       # Number of loads inserted to the mem dependence unit. (Count)
system.cpu0.MemDepUnit__2.insertedStores            0                       # Number of stores inserted to the mem dependence unit. (Count)
system.cpu0.MemDepUnit__2.conflictingLoads            0                       # Number of conflicting loads. (Count)
system.cpu0.MemDepUnit__2.conflictingStores            0                       # Number of conflicting stores. (Count)
system.cpu0.MemDepUnit__3.insertedLoads             0                       # Number of loads inserted to the mem dependence unit. (Count)
system.cpu0.MemDepUnit__3.insertedStores            0                       # Number of stores inserted to the mem dependence unit. (Count)
system.cpu0.MemDepUnit__3.conflictingLoads            0                       # Number of conflicting loads. (Count)
system.cpu0.MemDepUnit__3.conflictingStores            0                       # Number of conflicting stores. (Count)
system.cpu0.branchPred.lookups                3985501                       # Number of BP lookups (Count)
system.cpu0.branchPred.condPredicted          3708715                       # Number of conditional branches predicted (Count)
system.cpu0.branchPred.condIncorrect            82598                       # Number of conditional branches incorrect (Count)
system.cpu0.branchPred.BTBLookups             2397274                       # Number of BTB lookups (Count)
system.cpu0.branchPred.BTBHits                2392548                       # Number of BTB hits (Count)
system.cpu0.branchPred.BTBHitRatio           0.998029                       # BTB Hit Ratio (Ratio)
system.cpu0.branchPred.RASUsed                  49555                       # Number of times the RAS was used to get a target. (Count)
system.cpu0.branchPred.RASIncorrect                23                       # Number of incorrect RAS predictions. (Count)
system.cpu0.branchPred.indirectLookups          47588                       # Number of indirect predictor lookups. (Count)
system.cpu0.branchPred.indirectHits             38782                       # Number of indirect target hits. (Count)
system.cpu0.branchPred.indirectMisses            8806                       # Number of indirect misses. (Count)
system.cpu0.branchPred.indirectMispredicted         1655                       # Number of mispredicted indirect branches. (Count)
system.cpu0.commit.commitSquashedInsts        4809487                       # The number of squashed insts skipped by commit (Count)
system.cpu0.commit.commitNonSpecStalls          29160                       # The number of times commit has been forced to stall to communicate backwards (Count)
system.cpu0.commit.branchMispredicts            82207                       # The number of times a branch was mispredicted (Count)
system.cpu0.commit.numCommittedDist::samples     11874459                       # Number of insts commited each cycle (Count)
system.cpu0.commit.numCommittedDist::mean     2.104325                       # Number of insts commited each cycle (Count)
system.cpu0.commit.numCommittedDist::stdev     3.021355                       # Number of insts commited each cycle (Count)
system.cpu0.commit.numCommittedDist::underflows            0      0.00%      0.00% # Number of insts commited each cycle (Count)
system.cpu0.commit.numCommittedDist::0        6682810     56.28%     56.28% # Number of insts commited each cycle (Count)
system.cpu0.commit.numCommittedDist::1         968838      8.16%     64.44% # Number of insts commited each cycle (Count)
system.cpu0.commit.numCommittedDist::2         335864      2.83%     67.27% # Number of insts commited each cycle (Count)
system.cpu0.commit.numCommittedDist::3        1027824      8.66%     75.92% # Number of insts commited each cycle (Count)
system.cpu0.commit.numCommittedDist::4         275371      2.32%     78.24% # Number of insts commited each cycle (Count)
system.cpu0.commit.numCommittedDist::5         309944      2.61%     80.85% # Number of insts commited each cycle (Count)
system.cpu0.commit.numCommittedDist::6         204037      1.72%     82.57% # Number of insts commited each cycle (Count)
system.cpu0.commit.numCommittedDist::7         169908      1.43%     84.00% # Number of insts commited each cycle (Count)
system.cpu0.commit.numCommittedDist::8        1899863     16.00%    100.00% # Number of insts commited each cycle (Count)
system.cpu0.commit.numCommittedDist::overflows            0      0.00%    100.00% # Number of insts commited each cycle (Count)
system.cpu0.commit.numCommittedDist::min_value            0                       # Number of insts commited each cycle (Count)
system.cpu0.commit.numCommittedDist::max_value            8                       # Number of insts commited each cycle (Count)
system.cpu0.commit.numCommittedDist::total     11874459                       # Number of insts commited each cycle (Count)
system.cpu0.commit.instsCommitted            13093343                       # Number of instructions committed (Count)
system.cpu0.commit.opsCommitted              24987724                       # Number of ops (including micro ops) committed (Count)
system.cpu0.commit.memRefs                    3436531                       # Number of memory references committed (Count)
system.cpu0.commit.loads                      2425840                       # Number of loads committed (Count)
system.cpu0.commit.amos                             0                       # Number of atomic instructions committed (Count)
system.cpu0.commit.membars                      18576                       # Number of memory barriers committed (Count)
system.cpu0.commit.branches                   3174388                       # Number of branches committed (Count)
system.cpu0.commit.vectorInstructions               0                       # Number of committed Vector instructions. (Count)
system.cpu0.commit.floating                     96484                       # Number of committed floating point instructions. (Count)
system.cpu0.commit.integer                   24822528                       # Number of committed integer instructions. (Count)
system.cpu0.commit.functionCalls                44854                       # Number of function calls committed. (Count)
system.cpu0.commit.committedInstType_0::No_OpClass        87205      0.35%      0.35% # Class of committed instruction (Count)
system.cpu0.commit.committedInstType_0::IntAlu     21247992     85.03%     85.38% # Class of committed instruction (Count)
system.cpu0.commit.committedInstType_0::IntMult       120804      0.48%     85.87% # Class of committed instruction (Count)
system.cpu0.commit.committedInstType_0::IntDiv        37798      0.15%     86.02% # Class of committed instruction (Count)
system.cpu0.commit.committedInstType_0::FloatAdd         6363      0.03%     86.04% # Class of committed instruction (Count)
system.cpu0.commit.committedInstType_0::FloatCmp            0      0.00%     86.04% # Class of committed instruction (Count)
system.cpu0.commit.committedInstType_0::FloatCvt         2304      0.01%     86.05% # Class of committed instruction (Count)
system.cpu0.commit.committedInstType_0::FloatMult            0      0.00%     86.05% # Class of committed instruction (Count)
system.cpu0.commit.committedInstType_0::FloatMultAcc            0      0.00%     86.05% # Class of committed instruction (Count)
system.cpu0.commit.committedInstType_0::FloatDiv            0      0.00%     86.05% # Class of committed instruction (Count)
system.cpu0.commit.committedInstType_0::FloatMisc            0      0.00%     86.05% # Class of committed instruction (Count)
system.cpu0.commit.committedInstType_0::FloatSqrt            0      0.00%     86.05% # Class of committed instruction (Count)
system.cpu0.commit.committedInstType_0::SimdAdd         7130      0.03%     86.08% # Class of committed instruction (Count)
system.cpu0.commit.committedInstType_0::SimdAddAcc            0      0.00%     86.08% # Class of committed instruction (Count)
system.cpu0.commit.committedInstType_0::SimdAlu        13046      0.05%     86.13% # Class of committed instruction (Count)
system.cpu0.commit.committedInstType_0::SimdCmp            6      0.00%     86.13% # Class of committed instruction (Count)
system.cpu0.commit.committedInstType_0::SimdCvt        14648      0.06%     86.19% # Class of committed instruction (Count)
system.cpu0.commit.committedInstType_0::SimdMisc        12815      0.05%     86.24% # Class of committed instruction (Count)
system.cpu0.commit.committedInstType_0::SimdMult            0      0.00%     86.24% # Class of committed instruction (Count)
system.cpu0.commit.committedInstType_0::SimdMultAcc            0      0.00%     86.24% # Class of committed instruction (Count)
system.cpu0.commit.committedInstType_0::SimdShift         1070      0.00%     86.25% # Class of committed instruction (Count)
system.cpu0.commit.committedInstType_0::SimdShiftAcc            0      0.00%     86.25% # Class of committed instruction (Count)
system.cpu0.commit.committedInstType_0::SimdDiv            0      0.00%     86.25% # Class of committed instruction (Count)
system.cpu0.commit.committedInstType_0::SimdSqrt            0      0.00%     86.25% # Class of committed instruction (Count)
system.cpu0.commit.committedInstType_0::SimdFloatAdd            4      0.00%     86.25% # Class of committed instruction (Count)
system.cpu0.commit.committedInstType_0::SimdFloatAlu            0      0.00%     86.25% # Class of committed instruction (Count)
system.cpu0.commit.committedInstType_0::SimdFloatCmp            0      0.00%     86.25% # Class of committed instruction (Count)
system.cpu0.commit.committedInstType_0::SimdFloatCvt            6      0.00%     86.25% # Class of committed instruction (Count)
system.cpu0.commit.committedInstType_0::SimdFloatDiv            2      0.00%     86.25% # Class of committed instruction (Count)
system.cpu0.commit.committedInstType_0::SimdFloatMisc            0      0.00%     86.25% # Class of committed instruction (Count)
system.cpu0.commit.committedInstType_0::SimdFloatMult            0      0.00%     86.25% # Class of committed instruction (Count)
system.cpu0.commit.committedInstType_0::SimdFloatMultAcc            0      0.00%     86.25% # Class of committed instruction (Count)
system.cpu0.commit.committedInstType_0::SimdFloatSqrt            0      0.00%     86.25% # Class of committed instruction (Count)
system.cpu0.commit.committedInstType_0::SimdReduceAdd            0      0.00%     86.25% # Class of committed instruction (Count)
system.cpu0.commit.committedInstType_0::SimdReduceAlu            0      0.00%     86.25% # Class of committed instruction (Count)
system.cpu0.commit.committedInstType_0::SimdReduceCmp            0      0.00%     86.25% # Class of committed instruction (Count)
system.cpu0.commit.committedInstType_0::SimdFloatReduceAdd            0      0.00%     86.25% # Class of committed instruction (Count)
system.cpu0.commit.committedInstType_0::SimdFloatReduceCmp            0      0.00%     86.25% # Class of committed instruction (Count)
system.cpu0.commit.committedInstType_0::SimdAes            0      0.00%     86.25% # Class of committed instruction (Count)
system.cpu0.commit.committedInstType_0::SimdAesMix            0      0.00%     86.25% # Class of committed instruction (Count)
system.cpu0.commit.committedInstType_0::SimdSha1Hash            0      0.00%     86.25% # Class of committed instruction (Count)
system.cpu0.commit.committedInstType_0::SimdSha1Hash2            0      0.00%     86.25% # Class of committed instruction (Count)
system.cpu0.commit.committedInstType_0::SimdSha256Hash            0      0.00%     86.25% # Class of committed instruction (Count)
system.cpu0.commit.committedInstType_0::SimdSha256Hash2            0      0.00%     86.25% # Class of committed instruction (Count)
system.cpu0.commit.committedInstType_0::SimdShaSigma2            0      0.00%     86.25% # Class of committed instruction (Count)
system.cpu0.commit.committedInstType_0::SimdShaSigma3            0      0.00%     86.25% # Class of committed instruction (Count)
system.cpu0.commit.committedInstType_0::SimdPredAlu            0      0.00%     86.25% # Class of committed instruction (Count)
system.cpu0.commit.committedInstType_0::MemRead      2405753      9.63%     95.87% # Class of committed instruction (Count)
system.cpu0.commit.committedInstType_0::MemWrite       994700      3.98%     99.86% # Class of committed instruction (Count)
system.cpu0.commit.committedInstType_0::FloatMemRead        20087      0.08%     99.94% # Class of committed instruction (Count)
system.cpu0.commit.committedInstType_0::FloatMemWrite        15991      0.06%    100.00% # Class of committed instruction (Count)
system.cpu0.commit.committedInstType_0::IprAccess            0      0.00%    100.00% # Class of committed instruction (Count)
system.cpu0.commit.committedInstType_0::InstPrefetch            0      0.00%    100.00% # Class of committed instruction (Count)
system.cpu0.commit.committedInstType_0::total     24987724                       # Class of committed instruction (Count)
system.cpu0.commit.commitEligibleSamples      1899863                       # number cycles where commit BW limit reached (Cycle)
system.cpu0.dcache.demandHits::cpu0.data      3332202                       # number of demand (read+write) hits (Count)
system.cpu0.dcache.demandHits::total          3332202                       # number of demand (read+write) hits (Count)
system.cpu0.dcache.overallHits::cpu0.data      3332202                       # number of overall hits (Count)
system.cpu0.dcache.overallHits::total         3332202                       # number of overall hits (Count)
system.cpu0.dcache.demandMisses::cpu0.data       413285                       # number of demand (read+write) misses (Count)
system.cpu0.dcache.demandMisses::total         413285                       # number of demand (read+write) misses (Count)
system.cpu0.dcache.overallMisses::cpu0.data       413285                       # number of overall misses (Count)
system.cpu0.dcache.overallMisses::total        413285                       # number of overall misses (Count)
system.cpu0.dcache.demandMissLatency::cpu0.data  17293114979                       # number of demand (read+write) miss ticks (Tick)
system.cpu0.dcache.demandMissLatency::total  17293114979                       # number of demand (read+write) miss ticks (Tick)
system.cpu0.dcache.overallMissLatency::cpu0.data  17293114979                       # number of overall miss ticks (Tick)
system.cpu0.dcache.overallMissLatency::total  17293114979                       # number of overall miss ticks (Tick)
system.cpu0.dcache.demandAccesses::cpu0.data      3745487                       # number of demand (read+write) accesses (Count)
system.cpu0.dcache.demandAccesses::total      3745487                       # number of demand (read+write) accesses (Count)
system.cpu0.dcache.overallAccesses::cpu0.data      3745487                       # number of overall (read+write) accesses (Count)
system.cpu0.dcache.overallAccesses::total      3745487                       # number of overall (read+write) accesses (Count)
system.cpu0.dcache.demandMissRate::cpu0.data     0.110342                       # miss rate for demand accesses (Ratio)
system.cpu0.dcache.demandMissRate::total     0.110342                       # miss rate for demand accesses (Ratio)
system.cpu0.dcache.overallMissRate::cpu0.data     0.110342                       # miss rate for overall accesses (Ratio)
system.cpu0.dcache.overallMissRate::total     0.110342                       # miss rate for overall accesses (Ratio)
system.cpu0.dcache.demandAvgMissLatency::cpu0.data 41843.074341                       # average overall miss latency ((Cycle/Count))
system.cpu0.dcache.demandAvgMissLatency::total 41843.074341                       # average overall miss latency ((Cycle/Count))
system.cpu0.dcache.overallAvgMissLatency::cpu0.data 41843.074341                       # average overall miss latency ((Cycle/Count))
system.cpu0.dcache.overallAvgMissLatency::total 41843.074341                       # average overall miss latency ((Cycle/Count))
system.cpu0.dcache.blockedCycles::no_mshrs        84418                       # number of cycles access was blocked (Cycle)
system.cpu0.dcache.blockedCycles::no_targets         2142                       # number of cycles access was blocked (Cycle)
system.cpu0.dcache.blockedCauses::no_mshrs         3700                       # number of times access was blocked (Count)
system.cpu0.dcache.blockedCauses::no_targets           88                       # number of times access was blocked (Count)
system.cpu0.dcache.avgBlocked::no_mshrs     22.815676                       # average number of cycles each access was blocked ((Cycle/Count))
system.cpu0.dcache.avgBlocked::no_targets    24.340909                       # average number of cycles each access was blocked ((Cycle/Count))
system.cpu0.dcache.writebacks::writebacks        55179                       # number of writebacks (Count)
system.cpu0.dcache.writebacks::total            55179                       # number of writebacks (Count)
system.cpu0.dcache.demandMshrHits::cpu0.data       298435                       # number of demand (read+write) MSHR hits (Count)
system.cpu0.dcache.demandMshrHits::total       298435                       # number of demand (read+write) MSHR hits (Count)
system.cpu0.dcache.overallMshrHits::cpu0.data       298435                       # number of overall MSHR hits (Count)
system.cpu0.dcache.overallMshrHits::total       298435                       # number of overall MSHR hits (Count)
system.cpu0.dcache.demandMshrMisses::cpu0.data       114850                       # number of demand (read+write) MSHR misses (Count)
system.cpu0.dcache.demandMshrMisses::total       114850                       # number of demand (read+write) MSHR misses (Count)
system.cpu0.dcache.overallMshrMisses::cpu0.data       114850                       # number of overall MSHR misses (Count)
system.cpu0.dcache.overallMshrMisses::total       114850                       # number of overall MSHR misses (Count)
system.cpu0.dcache.demandMshrMissLatency::cpu0.data   4929510479                       # number of demand (read+write) MSHR miss ticks (Tick)
system.cpu0.dcache.demandMshrMissLatency::total   4929510479                       # number of demand (read+write) MSHR miss ticks (Tick)
system.cpu0.dcache.overallMshrMissLatency::cpu0.data   4929510479                       # number of overall MSHR miss ticks (Tick)
system.cpu0.dcache.overallMshrMissLatency::total   4929510479                       # number of overall MSHR miss ticks (Tick)
system.cpu0.dcache.demandMshrMissRate::cpu0.data     0.030664                       # mshr miss ratio for demand accesses (Ratio)
system.cpu0.dcache.demandMshrMissRate::total     0.030664                       # mshr miss ratio for demand accesses (Ratio)
system.cpu0.dcache.overallMshrMissRate::cpu0.data     0.030664                       # mshr miss ratio for overall accesses (Ratio)
system.cpu0.dcache.overallMshrMissRate::total     0.030664                       # mshr miss ratio for overall accesses (Ratio)
system.cpu0.dcache.demandAvgMshrMissLatency::cpu0.data 42921.292808                       # average overall mshr miss latency ((Cycle/Count))
system.cpu0.dcache.demandAvgMshrMissLatency::total 42921.292808                       # average overall mshr miss latency ((Cycle/Count))
system.cpu0.dcache.overallAvgMshrMissLatency::cpu0.data 42921.292808                       # average overall mshr miss latency ((Cycle/Count))
system.cpu0.dcache.overallAvgMshrMissLatency::total 42921.292808                       # average overall mshr miss latency ((Cycle/Count))
system.cpu0.dcache.replacements                107944                       # number of replacements (Count)
system.cpu0.dcache.ReadReq.hits::cpu0.data      2353569                       # number of ReadReq hits (Count)
system.cpu0.dcache.ReadReq.hits::total        2353569                       # number of ReadReq hits (Count)
system.cpu0.dcache.ReadReq.misses::cpu0.data       381214                       # number of ReadReq misses (Count)
system.cpu0.dcache.ReadReq.misses::total       381214                       # number of ReadReq misses (Count)
system.cpu0.dcache.ReadReq.missLatency::cpu0.data  15544983000                       # number of ReadReq miss ticks (Tick)
system.cpu0.dcache.ReadReq.missLatency::total  15544983000                       # number of ReadReq miss ticks (Tick)
system.cpu0.dcache.ReadReq.accesses::cpu0.data      2734783                       # number of ReadReq accesses(hits+misses) (Count)
system.cpu0.dcache.ReadReq.accesses::total      2734783                       # number of ReadReq accesses(hits+misses) (Count)
system.cpu0.dcache.ReadReq.missRate::cpu0.data     0.139395                       # miss rate for ReadReq accesses (Ratio)
system.cpu0.dcache.ReadReq.missRate::total     0.139395                       # miss rate for ReadReq accesses (Ratio)
system.cpu0.dcache.ReadReq.avgMissLatency::cpu0.data 40777.576374                       # average ReadReq miss latency ((Tick/Count))
system.cpu0.dcache.ReadReq.avgMissLatency::total 40777.576374                       # average ReadReq miss latency ((Tick/Count))
system.cpu0.dcache.ReadReq.mshrHits::cpu0.data       298428                       # number of ReadReq MSHR hits (Count)
system.cpu0.dcache.ReadReq.mshrHits::total       298428                       # number of ReadReq MSHR hits (Count)
system.cpu0.dcache.ReadReq.mshrMisses::cpu0.data        82786                       # number of ReadReq MSHR misses (Count)
system.cpu0.dcache.ReadReq.mshrMisses::total        82786                       # number of ReadReq MSHR misses (Count)
system.cpu0.dcache.ReadReq.mshrMissLatency::cpu0.data   3213722500                       # number of ReadReq MSHR miss ticks (Tick)
system.cpu0.dcache.ReadReq.mshrMissLatency::total   3213722500                       # number of ReadReq MSHR miss ticks (Tick)
system.cpu0.dcache.ReadReq.mshrMissRate::cpu0.data     0.030272                       # mshr miss rate for ReadReq accesses (Ratio)
system.cpu0.dcache.ReadReq.mshrMissRate::total     0.030272                       # mshr miss rate for ReadReq accesses (Ratio)
system.cpu0.dcache.ReadReq.avgMshrMissLatency::cpu0.data 38819.637378                       # average ReadReq mshr miss latency ((Tick/Count))
system.cpu0.dcache.ReadReq.avgMshrMissLatency::total 38819.637378                       # average ReadReq mshr miss latency ((Tick/Count))
system.cpu0.dcache.WriteReq.hits::cpu0.data       978633                       # number of WriteReq hits (Count)
system.cpu0.dcache.WriteReq.hits::total        978633                       # number of WriteReq hits (Count)
system.cpu0.dcache.WriteReq.misses::cpu0.data        32071                       # number of WriteReq misses (Count)
system.cpu0.dcache.WriteReq.misses::total        32071                       # number of WriteReq misses (Count)
system.cpu0.dcache.WriteReq.missLatency::cpu0.data   1748131979                       # number of WriteReq miss ticks (Tick)
system.cpu0.dcache.WriteReq.missLatency::total   1748131979                       # number of WriteReq miss ticks (Tick)
system.cpu0.dcache.WriteReq.accesses::cpu0.data      1010704                       # number of WriteReq accesses(hits+misses) (Count)
system.cpu0.dcache.WriteReq.accesses::total      1010704                       # number of WriteReq accesses(hits+misses) (Count)
system.cpu0.dcache.WriteReq.missRate::cpu0.data     0.031731                       # miss rate for WriteReq accesses (Ratio)
system.cpu0.dcache.WriteReq.missRate::total     0.031731                       # miss rate for WriteReq accesses (Ratio)
system.cpu0.dcache.WriteReq.avgMissLatency::cpu0.data 54508.184310                       # average WriteReq miss latency ((Tick/Count))
system.cpu0.dcache.WriteReq.avgMissLatency::total 54508.184310                       # average WriteReq miss latency ((Tick/Count))
system.cpu0.dcache.WriteReq.mshrHits::cpu0.data            7                       # number of WriteReq MSHR hits (Count)
system.cpu0.dcache.WriteReq.mshrHits::total            7                       # number of WriteReq MSHR hits (Count)
system.cpu0.dcache.WriteReq.mshrMisses::cpu0.data        32064                       # number of WriteReq MSHR misses (Count)
system.cpu0.dcache.WriteReq.mshrMisses::total        32064                       # number of WriteReq MSHR misses (Count)
system.cpu0.dcache.WriteReq.mshrMissLatency::cpu0.data   1715787979                       # number of WriteReq MSHR miss ticks (Tick)
system.cpu0.dcache.WriteReq.mshrMissLatency::total   1715787979                       # number of WriteReq MSHR miss ticks (Tick)
system.cpu0.dcache.WriteReq.mshrMissRate::cpu0.data     0.031724                       # mshr miss rate for WriteReq accesses (Ratio)
system.cpu0.dcache.WriteReq.mshrMissRate::total     0.031724                       # mshr miss rate for WriteReq accesses (Ratio)
system.cpu0.dcache.WriteReq.avgMshrMissLatency::cpu0.data 53511.351640                       # average WriteReq mshr miss latency ((Tick/Count))
system.cpu0.dcache.WriteReq.avgMshrMissLatency::total 53511.351640                       # average WriteReq mshr miss latency ((Tick/Count))
system.cpu0.dcache.power_state.pwrStateResidencyTicks::UNDEFINED   6417099000                       # Cumulative time (in ticks) in various power states (Tick)
system.cpu0.dcache.tags.tagsInUse          478.715878                       # Average ticks per tags in use ((Tick/Count))
system.cpu0.dcache.tags.totalRefs             3448587                       # Total number of references to valid blocks. (Count)
system.cpu0.dcache.tags.sampledRefs            108456                       # Sample count of references to valid blocks. (Count)
system.cpu0.dcache.tags.avgRefs             31.797107                       # Average number of references to valid blocks. ((Count/Count))
system.cpu0.dcache.tags.warmupTick             198000                       # The tick when the warmup percentage was hit. (Tick)
system.cpu0.dcache.tags.occupancies::cpu0.data   478.715878                       # Average occupied blocks per tick, per requestor ((Count/Tick))
system.cpu0.dcache.tags.avgOccs::cpu0.data     0.934992                       # Average percentage of cache occupancy ((Ratio/Tick))
system.cpu0.dcache.tags.avgOccs::total       0.934992                       # Average percentage of cache occupancy ((Ratio/Tick))
system.cpu0.dcache.tags.occupanciesTaskId::1024          512                       # Occupied blocks per task id (Count)
system.cpu0.dcache.tags.ageTaskId_1024::0           80                       # Occupied blocks per task id, per block age (Count)
system.cpu0.dcache.tags.ageTaskId_1024::1          244                       # Occupied blocks per task id, per block age (Count)
system.cpu0.dcache.tags.ageTaskId_1024::2           18                       # Occupied blocks per task id, per block age (Count)
system.cpu0.dcache.tags.ageTaskId_1024::3          170                       # Occupied blocks per task id, per block age (Count)
system.cpu0.dcache.tags.ratioOccsTaskId::1024            1                       # Ratio of occupied blocks and all blocks, per task id (Ratio)
system.cpu0.dcache.tags.tagAccesses           7599430                       # Number of tag accesses (Count)
system.cpu0.dcache.tags.dataAccesses          7599430                       # Number of data accesses (Count)
system.cpu0.dcache.tags.power_state.pwrStateResidencyTicks::UNDEFINED   6417099000                       # Cumulative time (in ticks) in various power states (Tick)
system.cpu0.decode.idleCycles                 1368654                       # Number of cycles decode is idle (Cycle)
system.cpu0.decode.blockedCycles              6401114                       # Number of cycles decode is blocked (Cycle)
system.cpu0.decode.runCycles                  4157992                       # Number of cycles decode is running (Cycle)
system.cpu0.decode.unblockCycles               532032                       # Number of cycles decode is unblocking (Cycle)
system.cpu0.decode.squashCycles                 83054                       # Number of cycles decode is squashing (Cycle)
system.cpu0.decode.branchResolved             2295689                       # Number of times decode resolved a branch (Count)
system.cpu0.decode.branchMispred                 1543                       # Number of times decode detected a branch misprediction (Count)
system.cpu0.decode.decodedInsts              31005993                       # Number of instructions handled by decode (Count)
system.cpu0.decode.squashedInsts                 7260                       # Number of squashed instructions handled by decode (Count)
system.cpu0.dtb_walker_cache.blockedCycles::no_mshrs            0                       # number of cycles access was blocked (Cycle)
system.cpu0.dtb_walker_cache.blockedCycles::no_targets            0                       # number of cycles access was blocked (Cycle)
system.cpu0.dtb_walker_cache.blockedCauses::no_mshrs            0                       # number of times access was blocked (Count)
system.cpu0.dtb_walker_cache.blockedCauses::no_targets            0                       # number of times access was blocked (Count)
system.cpu0.dtb_walker_cache.avgBlocked::no_mshrs          nan                       # average number of cycles each access was blocked ((Cycle/Count))
system.cpu0.dtb_walker_cache.avgBlocked::no_targets          nan                       # average number of cycles each access was blocked ((Cycle/Count))
system.cpu0.dtb_walker_cache.replacements            0                       # number of replacements (Count)
system.cpu0.dtb_walker_cache.power_state.pwrStateResidencyTicks::UNDEFINED   6417099000                       # Cumulative time (in ticks) in various power states (Tick)
system.cpu0.dtb_walker_cache.tags.tagsInUse            0                       # Average ticks per tags in use ((Tick/Count))
system.cpu0.dtb_walker_cache.tags.totalRefs            0                       # Total number of references to valid blocks. (Count)
system.cpu0.dtb_walker_cache.tags.sampledRefs            0                       # Sample count of references to valid blocks. (Count)
system.cpu0.dtb_walker_cache.tags.avgRefs          nan                       # Average number of references to valid blocks. ((Count/Count))
system.cpu0.dtb_walker_cache.tags.warmupTick            0                       # The tick when the warmup percentage was hit. (Tick)
system.cpu0.dtb_walker_cache.tags.tagAccesses            0                       # Number of tag accesses (Count)
system.cpu0.dtb_walker_cache.tags.dataAccesses            0                       # Number of data accesses (Count)
system.cpu0.dtb_walker_cache.tags.power_state.pwrStateResidencyTicks::UNDEFINED   6417099000                       # Cumulative time (in ticks) in various power states (Tick)
system.cpu0.fetch.icacheStallCycles           1371046                       # Number of cycles fetch is stalled on an Icache miss (Cycle)
system.cpu0.fetch.insts                      17201689                       # Number of instructions fetch has processed (Count)
system.cpu0.fetch.branches                    3985501                       # Number of branches that fetch encountered (Count)
system.cpu0.fetch.predictedBranches           2480885                       # Number of branches that fetch has predicted taken (Count)
system.cpu0.fetch.cycles                     11077818                       # Number of cycles fetch has run and was not squashing or blocked (Cycle)
system.cpu0.fetch.squashCycles                 169114                       # Number of cycles fetch has spent squashing (Cycle)
system.cpu0.fetch.miscStallCycles                1324                       # Number of cycles fetch has spent waiting on interrupts, or bad addresses, or out of MSHRs (Cycle)
system.cpu0.fetch.pendingTrapStallCycles         7901                       # Number of stall cycles due to pending traps (Cycle)
system.cpu0.fetch.pendingQuiesceStallCycles           36                       # Number of stall cycles due to pending quiesce instructions (Cycle)
system.cpu0.fetch.icacheWaitRetryStallCycles          164                       # Number of stall cycles due to full MSHR (Cycle)
system.cpu0.fetch.cacheLines                  1234244                       # Number of cache lines fetched (Count)
system.cpu0.fetch.icacheSquashes                12755                       # Number of outstanding Icache misses that were squashed (Count)
system.cpu0.fetch.nisnDist::samples          12542846                       # Number of instructions fetched each cycle (Total) (Count)
system.cpu0.fetch.nisnDist::mean             2.581878                       # Number of instructions fetched each cycle (Total) (Count)
system.cpu0.fetch.nisnDist::stdev            3.345367                       # Number of instructions fetched each cycle (Total) (Count)
system.cpu0.fetch.nisnDist::underflows              0      0.00%      0.00% # Number of instructions fetched each cycle (Total) (Count)
system.cpu0.fetch.nisnDist::0                 7103055     56.63%     56.63% # Number of instructions fetched each cycle (Total) (Count)
system.cpu0.fetch.nisnDist::1                  267092      2.13%     58.76% # Number of instructions fetched each cycle (Total) (Count)
system.cpu0.fetch.nisnDist::2                  508411      4.05%     62.81% # Number of instructions fetched each cycle (Total) (Count)
system.cpu0.fetch.nisnDist::3                  534310      4.26%     67.07% # Number of instructions fetched each cycle (Total) (Count)
system.cpu0.fetch.nisnDist::4                  228560      1.82%     68.90% # Number of instructions fetched each cycle (Total) (Count)
system.cpu0.fetch.nisnDist::5                  244253      1.95%     70.84% # Number of instructions fetched each cycle (Total) (Count)
system.cpu0.fetch.nisnDist::6                  743481      5.93%     76.77% # Number of instructions fetched each cycle (Total) (Count)
system.cpu0.fetch.nisnDist::7                  408604      3.26%     80.03% # Number of instructions fetched each cycle (Total) (Count)
system.cpu0.fetch.nisnDist::8                 2505080     19.97%    100.00% # Number of instructions fetched each cycle (Total) (Count)
system.cpu0.fetch.nisnDist::overflows               0      0.00%    100.00% # Number of instructions fetched each cycle (Total) (Count)
system.cpu0.fetch.nisnDist::min_value               0                       # Number of instructions fetched each cycle (Total) (Count)
system.cpu0.fetch.nisnDist::max_value               8                       # Number of instructions fetched each cycle (Total) (Count)
system.cpu0.fetch.nisnDist::total            12542846                       # Number of instructions fetched each cycle (Total) (Count)
system.cpu0.fetch.branchRate                 0.310574                       # Number of branch fetches per cycle (Ratio)
system.cpu0.fetch.rate                       1.340460                       # Number of inst fetches per cycle ((Count/Cycle))
system.cpu0.icache.demandHits::cpu0.inst      1229363                       # number of demand (read+write) hits (Count)
system.cpu0.icache.demandHits::total          1229363                       # number of demand (read+write) hits (Count)
system.cpu0.icache.overallHits::cpu0.inst      1229363                       # number of overall hits (Count)
system.cpu0.icache.overallHits::total         1229363                       # number of overall hits (Count)
system.cpu0.icache.demandMisses::cpu0.inst         4880                       # number of demand (read+write) misses (Count)
system.cpu0.icache.demandMisses::total           4880                       # number of demand (read+write) misses (Count)
system.cpu0.icache.overallMisses::cpu0.inst         4880                       # number of overall misses (Count)
system.cpu0.icache.overallMisses::total          4880                       # number of overall misses (Count)
system.cpu0.icache.demandMissLatency::cpu0.inst    357961497                       # number of demand (read+write) miss ticks (Tick)
system.cpu0.icache.demandMissLatency::total    357961497                       # number of demand (read+write) miss ticks (Tick)
system.cpu0.icache.overallMissLatency::cpu0.inst    357961497                       # number of overall miss ticks (Tick)
system.cpu0.icache.overallMissLatency::total    357961497                       # number of overall miss ticks (Tick)
system.cpu0.icache.demandAccesses::cpu0.inst      1234243                       # number of demand (read+write) accesses (Count)
system.cpu0.icache.demandAccesses::total      1234243                       # number of demand (read+write) accesses (Count)
system.cpu0.icache.overallAccesses::cpu0.inst      1234243                       # number of overall (read+write) accesses (Count)
system.cpu0.icache.overallAccesses::total      1234243                       # number of overall (read+write) accesses (Count)
system.cpu0.icache.demandMissRate::cpu0.inst     0.003954                       # miss rate for demand accesses (Ratio)
system.cpu0.icache.demandMissRate::total     0.003954                       # miss rate for demand accesses (Ratio)
system.cpu0.icache.overallMissRate::cpu0.inst     0.003954                       # miss rate for overall accesses (Ratio)
system.cpu0.icache.overallMissRate::total     0.003954                       # miss rate for overall accesses (Ratio)
system.cpu0.icache.demandAvgMissLatency::cpu0.inst 73352.765779                       # average overall miss latency ((Cycle/Count))
system.cpu0.icache.demandAvgMissLatency::total 73352.765779                       # average overall miss latency ((Cycle/Count))
system.cpu0.icache.overallAvgMissLatency::cpu0.inst 73352.765779                       # average overall miss latency ((Cycle/Count))
system.cpu0.icache.overallAvgMissLatency::total 73352.765779                       # average overall miss latency ((Cycle/Count))
system.cpu0.icache.blockedCycles::no_mshrs         1575                       # number of cycles access was blocked (Cycle)
system.cpu0.icache.blockedCycles::no_targets            0                       # number of cycles access was blocked (Cycle)
system.cpu0.icache.blockedCauses::no_mshrs           26                       # number of times access was blocked (Count)
system.cpu0.icache.blockedCauses::no_targets            0                       # number of times access was blocked (Count)
system.cpu0.icache.avgBlocked::no_mshrs     60.576923                       # average number of cycles each access was blocked ((Cycle/Count))
system.cpu0.icache.avgBlocked::no_targets          nan                       # average number of cycles each access was blocked ((Cycle/Count))
system.cpu0.icache.writebacks::writebacks         3425                       # number of writebacks (Count)
system.cpu0.icache.writebacks::total             3425                       # number of writebacks (Count)
system.cpu0.icache.demandMshrHits::cpu0.inst          942                       # number of demand (read+write) MSHR hits (Count)
system.cpu0.icache.demandMshrHits::total          942                       # number of demand (read+write) MSHR hits (Count)
system.cpu0.icache.overallMshrHits::cpu0.inst          942                       # number of overall MSHR hits (Count)
system.cpu0.icache.overallMshrHits::total          942                       # number of overall MSHR hits (Count)
system.cpu0.icache.demandMshrMisses::cpu0.inst         3938                       # number of demand (read+write) MSHR misses (Count)
system.cpu0.icache.demandMshrMisses::total         3938                       # number of demand (read+write) MSHR misses (Count)
system.cpu0.icache.overallMshrMisses::cpu0.inst         3938                       # number of overall MSHR misses (Count)
system.cpu0.icache.overallMshrMisses::total         3938                       # number of overall MSHR misses (Count)
system.cpu0.icache.demandMshrMissLatency::cpu0.inst    289649998                       # number of demand (read+write) MSHR miss ticks (Tick)
system.cpu0.icache.demandMshrMissLatency::total    289649998                       # number of demand (read+write) MSHR miss ticks (Tick)
system.cpu0.icache.overallMshrMissLatency::cpu0.inst    289649998                       # number of overall MSHR miss ticks (Tick)
system.cpu0.icache.overallMshrMissLatency::total    289649998                       # number of overall MSHR miss ticks (Tick)
system.cpu0.icache.demandMshrMissRate::cpu0.inst     0.003191                       # mshr miss ratio for demand accesses (Ratio)
system.cpu0.icache.demandMshrMissRate::total     0.003191                       # mshr miss ratio for demand accesses (Ratio)
system.cpu0.icache.overallMshrMissRate::cpu0.inst     0.003191                       # mshr miss ratio for overall accesses (Ratio)
system.cpu0.icache.overallMshrMissRate::total     0.003191                       # mshr miss ratio for overall accesses (Ratio)
system.cpu0.icache.demandAvgMshrMissLatency::cpu0.inst 73552.564246                       # average overall mshr miss latency ((Cycle/Count))
system.cpu0.icache.demandAvgMshrMissLatency::total 73552.564246                       # average overall mshr miss latency ((Cycle/Count))
system.cpu0.icache.overallAvgMshrMissLatency::cpu0.inst 73552.564246                       # average overall mshr miss latency ((Cycle/Count))
system.cpu0.icache.overallAvgMshrMissLatency::total 73552.564246                       # average overall mshr miss latency ((Cycle/Count))
system.cpu0.icache.replacements                  3425                       # number of replacements (Count)
system.cpu0.icache.ReadReq.hits::cpu0.inst      1229363                       # number of ReadReq hits (Count)
system.cpu0.icache.ReadReq.hits::total        1229363                       # number of ReadReq hits (Count)
system.cpu0.icache.ReadReq.misses::cpu0.inst         4880                       # number of ReadReq misses (Count)
system.cpu0.icache.ReadReq.misses::total         4880                       # number of ReadReq misses (Count)
system.cpu0.icache.ReadReq.missLatency::cpu0.inst    357961497                       # number of ReadReq miss ticks (Tick)
system.cpu0.icache.ReadReq.missLatency::total    357961497                       # number of ReadReq miss ticks (Tick)
system.cpu0.icache.ReadReq.accesses::cpu0.inst      1234243                       # number of ReadReq accesses(hits+misses) (Count)
system.cpu0.icache.ReadReq.accesses::total      1234243                       # number of ReadReq accesses(hits+misses) (Count)
system.cpu0.icache.ReadReq.missRate::cpu0.inst     0.003954                       # miss rate for ReadReq accesses (Ratio)
system.cpu0.icache.ReadReq.missRate::total     0.003954                       # miss rate for ReadReq accesses (Ratio)
system.cpu0.icache.ReadReq.avgMissLatency::cpu0.inst 73352.765779                       # average ReadReq miss latency ((Tick/Count))
system.cpu0.icache.ReadReq.avgMissLatency::total 73352.765779                       # average ReadReq miss latency ((Tick/Count))
system.cpu0.icache.ReadReq.mshrHits::cpu0.inst          942                       # number of ReadReq MSHR hits (Count)
system.cpu0.icache.ReadReq.mshrHits::total          942                       # number of ReadReq MSHR hits (Count)
system.cpu0.icache.ReadReq.mshrMisses::cpu0.inst         3938                       # number of ReadReq MSHR misses (Count)
system.cpu0.icache.ReadReq.mshrMisses::total         3938                       # number of ReadReq MSHR misses (Count)
system.cpu0.icache.ReadReq.mshrMissLatency::cpu0.inst    289649998                       # number of ReadReq MSHR miss ticks (Tick)
system.cpu0.icache.ReadReq.mshrMissLatency::total    289649998                       # number of ReadReq MSHR miss ticks (Tick)
system.cpu0.icache.ReadReq.mshrMissRate::cpu0.inst     0.003191                       # mshr miss rate for ReadReq accesses (Ratio)
system.cpu0.icache.ReadReq.mshrMissRate::total     0.003191                       # mshr miss rate for ReadReq accesses (Ratio)
system.cpu0.icache.ReadReq.avgMshrMissLatency::cpu0.inst 73552.564246                       # average ReadReq mshr miss latency ((Tick/Count))
system.cpu0.icache.ReadReq.avgMshrMissLatency::total 73552.564246                       # average ReadReq mshr miss latency ((Tick/Count))
system.cpu0.icache.power_state.pwrStateResidencyTicks::UNDEFINED   6417099000                       # Cumulative time (in ticks) in various power states (Tick)
system.cpu0.icache.tags.tagsInUse          502.507890                       # Average ticks per tags in use ((Tick/Count))
system.cpu0.icache.tags.totalRefs             1233301                       # Total number of references to valid blocks. (Count)
system.cpu0.icache.tags.sampledRefs              3938                       # Sample count of references to valid blocks. (Count)
system.cpu0.icache.tags.avgRefs            313.179533                       # Average number of references to valid blocks. ((Count/Count))
system.cpu0.icache.tags.warmupTick              95000                       # The tick when the warmup percentage was hit. (Tick)
system.cpu0.icache.tags.occupancies::cpu0.inst   502.507890                       # Average occupied blocks per tick, per requestor ((Count/Tick))
system.cpu0.icache.tags.avgOccs::cpu0.inst     0.981461                       # Average percentage of cache occupancy ((Ratio/Tick))
system.cpu0.icache.tags.avgOccs::total       0.981461                       # Average percentage of cache occupancy ((Ratio/Tick))
system.cpu0.icache.tags.occupanciesTaskId::1024          512                       # Occupied blocks per task id (Count)
system.cpu0.icache.tags.ageTaskId_1024::0           93                       # Occupied blocks per task id, per block age (Count)
system.cpu0.icache.tags.ageTaskId_1024::1          257                       # Occupied blocks per task id, per block age (Count)
system.cpu0.icache.tags.ageTaskId_1024::2            1                       # Occupied blocks per task id, per block age (Count)
system.cpu0.icache.tags.ageTaskId_1024::3          161                       # Occupied blocks per task id, per block age (Count)
system.cpu0.icache.tags.ratioOccsTaskId::1024            1                       # Ratio of occupied blocks and all blocks, per task id (Ratio)
system.cpu0.icache.tags.tagAccesses           2472424                       # Number of tag accesses (Count)
system.cpu0.icache.tags.dataAccesses          2472424                       # Number of data accesses (Count)
system.cpu0.icache.tags.power_state.pwrStateResidencyTicks::UNDEFINED   6417099000                       # Cumulative time (in ticks) in various power states (Tick)
system.cpu0.iew.idleCycles                          0                       # Number of cycles IEW is idle (Cycle)
system.cpu0.iew.squashCycles                    83054                       # Number of cycles IEW is squashing (Cycle)
system.cpu0.iew.blockCycles                   2849158                       # Number of cycles IEW is blocking (Cycle)
system.cpu0.iew.unblockCycles                  138101                       # Number of cycles IEW is unblocking (Cycle)
system.cpu0.iew.dispatchedInsts              29801022                       # Number of instructions dispatched to IQ (Count)
system.cpu0.iew.dispSquashedInsts                1742                       # Number of squashed instructions skipped by dispatch (Count)
system.cpu0.iew.dispLoadInsts                 3061408                       # Number of dispatched load instructions (Count)
system.cpu0.iew.dispStoreInsts                1217821                       # Number of dispatched store instructions (Count)
system.cpu0.iew.dispNonSpecInsts                24069                       # Number of dispatched non-speculative instructions (Count)
system.cpu0.iew.iqFullEvents                    38591                       # Number of times the IQ has become full, causing a stall (Count)
system.cpu0.iew.lsqFullEvents                   77206                       # Number of times the LSQ has become full, causing a stall (Count)
system.cpu0.iew.memOrderViolationEvents           246                       # Number of memory order violations (Count)
system.cpu0.iew.predictedTakenIncorrect         53828                       # Number of branches that were predicted taken incorrectly (Count)
system.cpu0.iew.predictedNotTakenIncorrect        58277                       # Number of branches that were predicted not taken incorrectly (Count)
system.cpu0.iew.branchMispredicts              112105                       # Number of branch mispredicts detected at execute (Count)
system.cpu0.iew.instsToCommit                27947417                       # Cumulative count of insts sent to commit (Count)
system.cpu0.iew.writebackCount               27907486                       # Cumulative count of insts written-back (Count)
system.cpu0.iew.producerInst                 21655244                       # Number of instructions producing a value (Count)
system.cpu0.iew.consumerInst                 35627778                       # Number of instructions consuming a value (Count)
system.cpu0.iew.wbRate                       2.174720                       # Insts written-back per cycle ((Count/Cycle))
system.cpu0.iew.wbFanout                     0.607819                       # Average fanout of values written-back ((Count/Count))
system.cpu0.interrupts.clk_domain.clock          8000                       # Clock period in ticks (Tick)
system.cpu0.itb_walker_cache.blockedCycles::no_mshrs            0                       # number of cycles access was blocked (Cycle)
system.cpu0.itb_walker_cache.blockedCycles::no_targets            0                       # number of cycles access was blocked (Cycle)
system.cpu0.itb_walker_cache.blockedCauses::no_mshrs            0                       # number of times access was blocked (Count)
system.cpu0.itb_walker_cache.blockedCauses::no_targets            0                       # number of times access was blocked (Count)
system.cpu0.itb_walker_cache.avgBlocked::no_mshrs          nan                       # average number of cycles each access was blocked ((Cycle/Count))
system.cpu0.itb_walker_cache.avgBlocked::no_targets          nan                       # average number of cycles each access was blocked ((Cycle/Count))
system.cpu0.itb_walker_cache.replacements            0                       # number of replacements (Count)
system.cpu0.itb_walker_cache.power_state.pwrStateResidencyTicks::UNDEFINED   6417099000                       # Cumulative time (in ticks) in various power states (Tick)
system.cpu0.itb_walker_cache.tags.tagsInUse            0                       # Average ticks per tags in use ((Tick/Count))
system.cpu0.itb_walker_cache.tags.totalRefs            0                       # Total number of references to valid blocks. (Count)
system.cpu0.itb_walker_cache.tags.sampledRefs            0                       # Sample count of references to valid blocks. (Count)
system.cpu0.itb_walker_cache.tags.avgRefs          nan                       # Average number of references to valid blocks. ((Count/Count))
system.cpu0.itb_walker_cache.tags.warmupTick            0                       # The tick when the warmup percentage was hit. (Tick)
system.cpu0.itb_walker_cache.tags.tagAccesses            0                       # Number of tag accesses (Count)
system.cpu0.itb_walker_cache.tags.dataAccesses            0                       # Number of data accesses (Count)
system.cpu0.itb_walker_cache.tags.power_state.pwrStateResidencyTicks::UNDEFINED   6417099000                       # Cumulative time (in ticks) in various power states (Tick)
system.cpu0.lsq0.forwLoads                      76733                       # Number of loads that had data forwarded from stores (Count)
system.cpu0.lsq0.squashedLoads                 635568                       # Number of loads squashed (Count)
system.cpu0.lsq0.ignoredResponses                 178                       # Number of memory responses ignored because the instruction is squashed (Count)
system.cpu0.lsq0.memOrderViolation                246                       # Number of memory ordering violations (Count)
system.cpu0.lsq0.squashedStores                207130                       # Number of stores squashed (Count)
system.cpu0.lsq0.rescheduledLoads                  14                       # Number of loads that were rescheduled (Count)
system.cpu0.lsq0.blockedByCache                  2764                       # Number of times an access to memory failed due to the cache being blocked (Count)
system.cpu0.lsq0.loadToUse::samples           2425840                       # Distribution of cycle latency between the first time a load is issued and its completion (Unspecified)
system.cpu0.lsq0.loadToUse::mean            13.289303                       # Distribution of cycle latency between the first time a load is issued and its completion (Unspecified)
system.cpu0.lsq0.loadToUse::stdev           32.519370                       # Distribution of cycle latency between the first time a load is issued and its completion (Unspecified)
system.cpu0.lsq0.loadToUse::0-9               2125720     87.63%     87.63% # Distribution of cycle latency between the first time a load is issued and its completion (Unspecified)
system.cpu0.lsq0.loadToUse::10-19               12635      0.52%     88.15% # Distribution of cycle latency between the first time a load is issued and its completion (Unspecified)
system.cpu0.lsq0.loadToUse::20-29               38274      1.58%     89.73% # Distribution of cycle latency between the first time a load is issued and its completion (Unspecified)
system.cpu0.lsq0.loadToUse::30-39                4375      0.18%     89.91% # Distribution of cycle latency between the first time a load is issued and its completion (Unspecified)
[...]
system.mem_ctrls.bytesInstRead::cpu1.inst       175040                       # Number of instructions bytes read from this memory (Byte)
system.mem_ctrls.bytesInstRead::total          349376                       # Number of instructions bytes read from this memory (Byte)
system.mem_ctrls.bytesWritten::writebacks       174528                       # Number of bytes written to this memory (Byte)
system.mem_ctrls.bytesWritten::total           174528                       # Number of bytes written to this memory (Byte)
system.mem_ctrls.numReads::cpu0.inst             2724                       # Number of read requests responded to by this memory (Count)
system.mem_ctrls.numReads::cpu0.data            23312                       # Number of read requests responded to by this memory (Count)
system.mem_ctrls.numReads::cpu1.inst             2735                       # Number of read requests responded to by this memory (Count)
system.mem_ctrls.numReads::cpu1.data            23312                       # Number of read requests responded to by this memory (Count)
system.mem_ctrls.numReads::total                52083                       # Number of read requests responded to by this memory (Count)
system.mem_ctrls.numWrites::writebacks           2727                       # Number of write requests responded to by this memory (Count)
system.mem_ctrls.numWrites::total                2727                       # Number of write requests responded to by this memory (Count)
system.mem_ctrls.bwRead::cpu0.inst           27167416                       # Total read bandwidth from this memory ((Byte/Second))
system.mem_ctrls.bwRead::cpu0.data          232498829                       # Total read bandwidth from this memory ((Byte/Second))
system.mem_ctrls.bwRead::cpu1.inst           27277123                       # Total read bandwidth from this memory ((Byte/Second))
system.mem_ctrls.bwRead::cpu1.data          232498829                       # Total read bandwidth from this memory ((Byte/Second))
system.mem_ctrls.bwRead::total              519442197                       # Total read bandwidth from this memory ((Byte/Second))
system.mem_ctrls.bwInstRead::cpu0.inst       27167416                       # Instruction read bandwidth from this memory ((Byte/Second))
system.mem_ctrls.bwInstRead::cpu1.inst       27277123                       # Instruction read bandwidth from this memory ((Byte/Second))
system.mem_ctrls.bwInstRead::total           54444540                       # Instruction read bandwidth from this memory ((Byte/Second))
system.mem_ctrls.bwWrite::writebacks         27197336                       # Write bandwidth from this memory ((Byte/Second))
system.mem_ctrls.bwWrite::total              27197336                       # Write bandwidth from this memory ((Byte/Second))
system.mem_ctrls.bwTotal::writebacks         27197336                       # Total bandwidth to/from this memory ((Byte/Second))
system.mem_ctrls.bwTotal::cpu0.inst          27167416                       # Total bandwidth to/from this memory ((Byte/Second))
system.mem_ctrls.bwTotal::cpu0.data         232498829                       # Total bandwidth to/from this memory ((Byte/Second))
system.mem_ctrls.bwTotal::cpu1.inst          27277123                       # Total bandwidth to/from this memory ((Byte/Second))
system.mem_ctrls.bwTotal::cpu1.data         232498829                       # Total bandwidth to/from this memory ((Byte/Second))
system.mem_ctrls.bwTotal::total             546639533                       # Total bandwidth to/from this memory ((Byte/Second))
system.mem_ctrls.power_state.pwrStateResidencyTicks::UNDEFINED   6417099000                       # Cumulative time (in ticks) in various power states (Tick)
system.membus.transDist::ReadResp               27643                       # Transaction distribution (Count)
system.membus.transDist::WritebackDirty          2727                       # Transaction distribution (Count)
system.membus.transDist::CleanEvict             16298                       # Transaction distribution (Count)
system.membus.transDist::ReadExReq              24439                       # Transaction distribution (Count)
system.membus.transDist::ReadExResp             24439                       # Transaction distribution (Count)
system.membus.transDist::ReadSharedReq          27644                       # Transaction distribution (Count)
system.membus.pktCount_system.l3.mem_side_port::system.mem_ctrls.port       123190                       # Packet count per connected requestor and responder (Count)
system.membus.pktCount_system.l3.mem_side_port::total       123190                       # Packet count per connected requestor and responder (Count)
system.membus.pktCount::total                  123190                       # Packet count per connected requestor and responder (Count)
system.membus.pktSize_system.l3.mem_side_port::system.mem_ctrls.port      3507776                       # Cumulative packet size per connected requestor and responder (Byte)
system.membus.pktSize_system.l3.mem_side_port::total      3507776                       # Cumulative packet size per connected requestor and responder (Byte)
system.membus.pktSize::total                  3507776                       # Cumulative packet size per connected requestor and responder (Byte)
system.membus.snoops                                0                       # Total snoops (Count)
system.membus.snoopTraffic                          0                       # Total snoop traffic (Byte)
system.membus.snoopFanout::samples              55416                       # Request fanout histogram (Count)
system.membus.snoopFanout::mean                     0                       # Request fanout histogram (Count)
system.membus.snoopFanout::stdev                    0                       # Request fanout histogram (Count)
system.membus.snoopFanout::underflows               0      0.00%      0.00% # Request fanout histogram (Count)
system.membus.snoopFanout::0                    55416    100.00%    100.00% # Request fanout histogram (Count)
system.membus.snoopFanout::1                        0      0.00%    100.00% # Request fanout histogram (Count)
system.membus.snoopFanout::overflows                0      0.00%    100.00% # Request fanout histogram (Count)
system.membus.snoopFanout::min_value                0                       # Request fanout histogram (Count)
system.membus.snoopFanout::max_value                0                       # Request fanout histogram (Count)
system.membus.snoopFanout::total                55416                       # Request fanout histogram (Count)
system.membus.power_state.pwrStateResidencyTicks::UNDEFINED   6417099000                       # Cumulative time (in ticks) in various power states (Tick)
system.membus.reqLayer4.occupancy            98613452                       # Layer occupancy (ticks) (Tick)
system.membus.reqLayer4.utilization               0.0                       # Layer utilization (Ratio)
system.membus.respLayer1.occupancy          260410000                       # Layer occupancy (ticks) (Tick)
system.membus.respLayer1.utilization              0.0                       # Layer utilization (Ratio)
system.membus.snoop_filter.totRequests          74484                       # Total number of requests made to the snoop filter. (Count)
system.membus.snoop_filter.hitSingleRequests        19069                       # Number of requests hitting in the snoop filter with a single holder of the requested data. (Count)
system.membus.snoop_filter.hitMultiRequests            0                       # Number of requests hitting in the snoop filter with multiple (>1) holders of the requested data. (Count)
system.membus.snoop_filter.totSnoops                0                       # Total number of snoops made to the snoop filter. (Count)
system.membus.snoop_filter.hitSingleSnoops            0                       # Number of snoops hitting in the snoop filter with a single holder of the requested data. (Count)
system.membus.snoop_filter.hitMultiSnoops            0                       # Number of snoops hitting in the snoop filter with multiple (>1) holders of the requested data. (Count)
system.tol2bus.transDist::ReadResp             173580                       # Transaction distribution (Count)
system.tol2bus.transDist::WritebackDirty       247984                       # Transaction distribution (Count)
system.tol2bus.transDist::WritebackClean         6898                       # Transaction distribution (Count)
system.tol2bus.transDist::CleanEvict           149034                       # Transaction distribution (Count)
system.tol2bus.transDist::UpgradeReq            12784                       # Transaction distribution (Count)
system.tol2bus.transDist::UpgradeResp           12784                       # Transaction distribution (Count)
system.tol2bus.transDist::ReadExReq             51344                       # Transaction distribution (Count)
system.tol2bus.transDist::ReadExResp            51344                       # Transaction distribution (Count)
system.tol2bus.transDist::ReadCleanReq           7925                       # Transaction distribution (Count)
system.tol2bus.transDist::ReadSharedReq        165656                       # Transaction distribution (Count)
system.tol2bus.pktCount_system.cpu0.icache.mem_side_port::system.l2.cpu_side_port        11299                       # Packet count per connected requestor and responder (Count)
system.tol2bus.pktCount_system.cpu0.dcache.mem_side_port::system.l2.cpu_side_port       337652                       # Packet count per connected requestor and responder (Count)
system.tol2bus.pktCount_system.cpu1.icache.mem_side_port::system.l2.cpu_side_port        11444                       # Packet count per connected requestor and responder (Count)
system.tol2bus.pktCount_system.cpu1.dcache.mem_side_port::system.l2.cpu_side_port       337892                       # Packet count per connected requestor and responder (Count)
system.tol2bus.pktCount::total                 698287                       # Packet count per connected requestor and responder (Count)
system.tol2bus.pktSize_system.cpu0.icache.mem_side_port::system.l2.cpu_side_port       471104                       # Cumulative packet size per connected requestor and responder (Byte)
system.tol2bus.pktSize_system.cpu0.dcache.mem_side_port::system.l2.cpu_side_port     10472640                       # Cumulative packet size per connected requestor and responder (Byte)
system.tol2bus.pktSize_system.cpu1.icache.mem_side_port::system.l2.cpu_side_port       477248                       # Cumulative packet size per connected requestor and responder (Byte)
system.tol2bus.pktSize_system.cpu1.dcache.mem_side_port::system.l2.cpu_side_port     10481984                       # Cumulative packet size per connected requestor and responder (Byte)
system.tol2bus.pktSize::total                21902976                       # Cumulative packet size per connected requestor and responder (Byte)
system.tol2bus.snoops                          181046                       # Total snoops (Count)
system.tol2bus.snoopTraffic                   8804608                       # Total snoop traffic (Byte)
system.tol2bus.snoopFanout::samples            418751                       # Request fanout histogram (Count)
system.tol2bus.snoopFanout::mean             0.049571                       # Request fanout histogram (Count)
system.tol2bus.snoopFanout::stdev            0.217201                       # Request fanout histogram (Count)
system.tol2bus.snoopFanout::underflows              0      0.00%      0.00% # Request fanout histogram (Count)
system.tol2bus.snoopFanout::0                  398006     95.05%     95.05% # Request fanout histogram (Count)
system.tol2bus.snoopFanout::1                   20732      4.95%    100.00% # Request fanout histogram (Count)
system.tol2bus.snoopFanout::2                      13      0.00%    100.00% # Request fanout histogram (Count)
system.tol2bus.snoopFanout::3                       0      0.00%    100.00% # Request fanout histogram (Count)
system.tol2bus.snoopFanout::4                       0      0.00%    100.00% # Request fanout histogram (Count)
system.tol2bus.snoopFanout::5                       0      0.00%    100.00% # Request fanout histogram (Count)
system.tol2bus.snoopFanout::6                       0      0.00%    100.00% # Request fanout histogram (Count)
system.tol2bus.snoopFanout::7                       0      0.00%    100.00% # Request fanout histogram (Count)
system.tol2bus.snoopFanout::8                       0      0.00%    100.00% # Request fanout histogram (Count)
system.tol2bus.snoopFanout::overflows               0      0.00%    100.00% # Request fanout histogram (Count)
system.tol2bus.snoopFanout::min_value               0                       # Request fanout histogram (Count)
system.tol2bus.snoopFanout::max_value               2                       # Request fanout histogram (Count)
system.tol2bus.snoopFanout::total              418751                       # Request fanout histogram (Count)
system.tol2bus.power_state.pwrStateResidencyTicks::UNDEFINED   6417099000                       # Cumulative time (in ticks) in various power states (Tick)
system.tol2bus.reqLayer0.occupancy          347605500                       # Layer occupancy (ticks) (Tick)
system.tol2bus.reqLayer0.utilization              0.1                       # Layer utilization (Ratio)
system.tol2bus.respLayer0.occupancy           5911491                       # Layer occupancy (ticks) (Tick)
system.tol2bus.respLayer0.utilization             0.0                       # Layer utilization (Ratio)
system.tol2bus.respLayer1.occupancy         166118029                       # Layer occupancy (ticks) (Tick)
system.tol2bus.respLayer1.utilization             0.0                       # Layer utilization (Ratio)
system.tol2bus.respLayer4.occupancy           5982992                       # Layer occupancy (ticks) (Tick)
system.tol2bus.respLayer4.utilization             0.0                       # Layer utilization (Ratio)
system.tol2bus.respLayer5.occupancy         166235047                       # Layer occupancy (ticks) (Tick)
system.tol2bus.respLayer5.utilization             0.0                       # Layer utilization (Ratio)
system.tol2bus.snoop_filter.totRequests        460583                       # Total number of requests made to the snoop filter. (Count)
system.tol2bus.snoop_filter.hitSingleRequests       235658                       # Number of requests hitting in the snoop filter with a single holder of the requested data. (Count)
system.tol2bus.snoop_filter.hitMultiRequests           26                       # Number of requests hitting in the snoop filter with multiple (>1) holders of the requested data. (Count)
system.tol2bus.snoop_filter.totSnoops           20717                       # Total number of snoops made to the snoop filter. (Count)
system.tol2bus.snoop_filter.hitSingleSnoops        20704                       # Number of snoops hitting in the snoop filter with a single holder of the requested data. (Count)
system.tol2bus.snoop_filter.hitMultiSnoops           13                       # Number of snoops hitting in the snoop filter with multiple (>1) holders of the requested data. (Count)
system.tol3bus.transDist::ReadResp             123669                       # Transaction distribution (Count)
system.tol3bus.transDist::WritebackDirty       140295                       # Transaction distribution (Count)
system.tol3bus.transDist::CleanEvict            52433                       # Transaction distribution (Count)
system.tol3bus.transDist::UpgradeReq               15                       # Transaction distribution (Count)
system.tol3bus.transDist::UpgradeResp              15                       # Transaction distribution (Count)
system.tol3bus.transDist::ReadExReq             47407                       # Transaction distribution (Count)
system.tol3bus.transDist::ReadExResp            47407                       # Transaction distribution (Count)
system.tol3bus.transDist::ReadSharedReq        123670                       # Transaction distribution (Count)
system.tol3bus.pktCount_system.l2.mem_side_port::system.l3.cpu_side_port       515591                       # Packet count per connected requestor and responder (Count)
system.tol3bus.pktSize_system.l2.mem_side_port::system.l3.cpu_side_port     19753216                       # Cumulative packet size per connected requestor and responder (Byte)
system.tol3bus.snoops                           19320                       # Total snoops (Count)
system.tol3bus.snoopTraffic                    174528                       # Total snoop traffic (Byte)
system.tol3bus.snoopFanout::samples            190412                       # Request fanout histogram (Count)
system.tol3bus.snoopFanout::mean             0.002978                       # Request fanout histogram (Count)
system.tol3bus.snoopFanout::stdev            0.054488                       # Request fanout histogram (Count)
system.tol3bus.snoopFanout::underflows              0      0.00%      0.00% # Request fanout histogram (Count)
system.tol3bus.snoopFanout::0                  189845     99.70%     99.70% # Request fanout histogram (Count)
system.tol3bus.snoopFanout::1                     567      0.30%    100.00% # Request fanout histogram (Count)
system.tol3bus.snoopFanout::overflows               0      0.00%    100.00% # Request fanout histogram (Count)
system.tol3bus.snoopFanout::min_value               0                       # Request fanout histogram (Count)
system.tol3bus.snoopFanout::max_value               1                       # Request fanout histogram (Count)
system.tol3bus.snoopFanout::total              190412                       # Request fanout histogram (Count)
system.tol3bus.power_state.pwrStateResidencyTicks::UNDEFINED   6417099000                       # Cumulative time (in ticks) in various power states (Tick)
system.tol3bus.reqLayer0.occupancy          309818000                       # Layer occupancy (ticks) (Tick)
system.tol3bus.reqLayer0.utilization              0.0                       # Layer utilization (Ratio)
system.tol3bus.respLayer0.occupancy         256621500                       # Layer occupancy (ticks) (Tick)
system.tol3bus.respLayer0.utilization             0.0                       # Layer utilization (Ratio)
system.tol3bus.snoop_filter.totRequests        344500                       # Total number of requests made to the snoop filter. (Count)
system.tol3bus.snoop_filter.hitSingleRequests       173439                       # Number of requests hitting in the snoop filter with a single holder of the requested data. (Count)
system.tol3bus.snoop_filter.hitMultiRequests            0                       # Number of requests hitting in the snoop filter with multiple (>1) holders of the requested data. (Count)
system.tol3bus.snoop_filter.totSnoops             567                       # Total number of snoops made to the snoop filter. (Count)
system.tol3bus.snoop_filter.hitSingleSnoops          567                       # Number of snoops hitting in the snoop filter with a single holder of the requested data. (Count)
system.tol3bus.snoop_filter.hitMultiSnoops            0                       # Number of snoops hitting in the snoop filter with multiple (>1) holders of the requested data. (Count)
system.voltage_domain.voltage                       1                       # Voltage in Volts (Volt)
system.workload.inst.arm                            0                       # number of arm instructions executed (Count)
system.workload.inst.quiesce                        0                       # number of quiesce instructions executed (Count)

---------- End Simulation Statistics   ----------
