
---------- Begin Simulation Statistics ----------
simSeconds                                   0.006916                       # Number of seconds simulated (Second)
simTicks                                   6915696000                       # Number of ticks simulated (Tick)
finalTick                                  6915696000                       # Number of ticks from beginning of simulation (restored from checkpoints and never reset) (Tick)
simFreq                                  1000000000000                       # The number of ticks per simulated second ((Tick/Second))
hostSeconds                                    916.93                       # Real time elapsed on the host (Second)
hostTickRate                                  7542262                       # The number of ticks simulated per host second (ticks/s) ((Tick/Second))
hostMemory                                    8902004                       # Number of bytes of host memory used (Byte)
simInsts                                     26186686                       # Number of instructions simulated (Count)
simOps                                       49975448                       # Number of ops (including micro ops) simulated (Count)
hostInstRate                                    28559                       # Simulator instruction rate (inst/s) ((Count/Second))
hostOpRate                                      54503                       # Simulator op (including micro ops) rate (op/s) ((Count/Second))
system.clk_domain.clock                          1000                       # Clock period in ticks (Tick)
system.cpu0.numCycles                        13831393                       # Number of cpu cycles simulated (Cycle)
system.cpu0.numWorkItemsStarted                     0                       # Number of work items this cpu started (Count)
system.cpu0.numWorkItemsCompleted                   0                       # Number of work items this cpu completed (Count)
system.cpu0.instsAdded                       29607617                       # Number of instructions added to the IQ (excludes non-spec) (Count)
system.cpu0.nonSpecInstsAdded                   69237                       # Number of non-speculative instructions added to the IQ (Count)
system.cpu0.instsIssued                      28065430                       # Number of instructions issued (Count)
system.cpu0.squashedInstsIssued                107182                       # Number of squashed instructions issued (Count)
system.cpu0.squashedInstsExamined             4689115                       # Number of squashed instructions iterated over during squash; mainly for profiling (Count)
system.cpu0.squashedOperandsExamined          6520705                       # Number of squashed operands that are examined and possibly removed from graph (Count)
system.cpu0.squashedNonSpecRemoved              40076                       # Number of squashed non-spec instructions that were removed (Count)
system.cpu0.numIssuedDist::samples           13528347                       # Number of insts issued each cycle (Count)
system.cpu0.numIssuedDist::mean              2.074565                       # Number of insts issued each cycle (Count)
system.cpu0.numIssuedDist::stdev             2.574578                       # Number of insts issued each cycle (Count)
system.cpu0.numIssuedDist::underflows               0      0.00%      0.00% # Number of insts issued each cycle (Count)
system.cpu0.numIssuedDist::0                  6962598     51.47%     51.47% # Number of insts issued each cycle (Count)
system.cpu0.numIssuedDist::1                   822188      6.08%     57.54% # Number of insts issued each cycle (Count)
system.cpu0.numIssuedDist::2                   735667      5.44%     62.98% # Number of insts issued each cycle (Count)
system.cpu0.numIssuedDist::3                  1044247      7.72%     70.70% # Number of insts issued each cycle (Count)
system.cpu0.numIssuedDist::4                   766459      5.67%     76.37% # Number of insts issued each cycle (Count)
system.cpu0.numIssuedDist::5                   898478      6.64%     83.01% # Number of insts issued each cycle (Count)
system.cpu0.numIssuedDist::6                  1260421      9.32%     92.33% # Number of insts issued each cycle (Count)
system.cpu0.numIssuedDist::7                   787897      5.82%     98.15% # Number of insts issued each cycle (Count)
system.cpu0.numIssuedDist::8                   250392      1.85%    100.00% # Number of insts issued each cycle (Count)
system.cpu0.numIssuedDist::overflows                0      0.00%    100.00% # Number of insts issued each cycle (Count)
system.cpu0.numIssuedDist::min_value                0                       # Number of insts issued each cycle (Count)
system.cpu0.numIssuedDist::max_value                8                       # Number of insts issued each cycle (Count)
system.cpu0.numIssuedDist::total             13528347                       # Number of insts issued each cycle (Count)
system.cpu0.statFuBusy::No_OpClass                  0      0.00%      0.00% # attempts to use FU when none available (Count)
system.cpu0.statFuBusy::IntAlu                1236413     97.09%     97.09% # attempts to use FU when none available (Count)
system.cpu0.statFuBusy::IntMult                     0      0.00%     97.09% # attempts to use FU when none available (Count)
system.cpu0.statFuBusy::IntDiv                      0      0.00%     97.09% # attempts to use FU when none available (Count)
system.cpu0.statFuBusy::FloatAdd                    0      0.00%     97.09% # attempts to use FU when none available (Count)
system.cpu0.statFuBusy::FloatCmp                    0      0.00%     97.09% # attempts to use FU when none available (Count)
system.cpu0.statFuBusy::FloatCvt                    0      0.00%     97.09% # attempts to use FU when none available (Count)
system.cpu0.statFuBusy::FloatMult                   0      0.00%     97.09% # attempts to use FU when none available (Count)
system.cpu0.statFuBusy::FloatMultAcc                0      0.00%     97.09% # attempts to use FU when none available (Count)
system.cpu0.statFuBusy::FloatDiv                    0      0.00%     97.09% # attempts to use FU when none available (Count)
system.cpu0.statFuBusy::FloatMisc                   0      0.00%     97.09% # attempts to use FU when none available (Count)
system.cpu0.statFuBusy::FloatSqrt                   0      0.00%     97.09% # attempts to use FU when none available (Count)
system.cpu0.statFuBusy::SimdAdd                     1      0.00%     97.09% # attempts to use FU when none available (Count)
system.cpu0.statFuBusy::SimdAddAcc                  0      0.00%     97.09% # attempts to use FU when none available (Count)
system.cpu0.statFuBusy::SimdAlu                   133      0.01%     97.10% # attempts to use FU when none available (Count)
system.cpu0.statFuBusy::SimdCmp                     0      0.00%     97.10% # attempts to use FU when none available (Count)
system.cpu0.statFuBusy::SimdCvt                  1013      0.08%     97.18% # attempts to use FU when none available (Count)
system.cpu0.statFuBusy::SimdMisc                   14      0.00%     97.18% # attempts to use FU when none available (Count)
system.cpu0.statFuBusy::SimdMult                    0      0.00%     97.18% # attempts to use FU when none available (Count)
system.cpu0.statFuBusy::SimdMultAcc                 0      0.00%     97.18% # attempts to use FU when none available (Count)
system.cpu0.statFuBusy::SimdShift                  17      0.00%     97.18% # attempts to use FU when none available (Count)
system.cpu0.statFuBusy::SimdShiftAcc                0      0.00%     97.18% # attempts to use FU when none available (Count)
system.cpu0.statFuBusy::SimdDiv                     0      0.00%     97.18% # attempts to use FU when none available (Count)
system.cpu0.statFuBusy::SimdSqrt                    0      0.00%     97.18% # attempts to use FU when none available (Count)
system.cpu0.statFuBusy::SimdFloatAdd                0      0.00%     97.18% # attempts to use FU when none available (Count)
system.cpu0.statFuBusy::SimdFloatAlu                0      0.00%     97.18% # attempts to use FU when none available (Count)
system.cpu0.statFuBusy::SimdFloatCmp                0      0.00%     97.18% # attempts to use FU when none available (Count)
system.cpu0.statFuBusy::SimdFloatCvt                0      0.00%     97.18% # attempts to use FU when none available (Count)
system.cpu0.statFuBusy::SimdFloatDiv                0      0.00%     97.18% # attempts to use FU when none available (Count)
system.cpu0.statFuBusy::SimdFloatMisc               0      0.00%     97.18% # attempts to use FU when none available (Count)
system.cpu0.statFuBusy::SimdFloatMult               0      0.00%     97.18% # attempts to use FU when none available (Count)
system.cpu0.statFuBusy::SimdFloatMultAcc            0      0.00%     97.18% # attempts to use FU when none available (Count)
system.cpu0.statFuBusy::SimdFloatSqrt               0      0.00%     97.18% # attempts to use FU when none available (Count)
system.cpu0.statFuBusy::SimdReduceAdd               0      0.00%     97.18% # attempts to use FU when none available (Count)
system.cpu0.statFuBusy::SimdReduceAlu               0      0.00%     97.18% # attempts to use FU when none available (Count)
system.cpu0.statFuBusy::SimdReduceCmp               0      0.00%     97.18% # attempts to use FU when none available (Count)
system.cpu0.statFuBusy::SimdFloatReduceAdd            0      0.00%     97.18% # attempts to use FU when none available (Count)
system.cpu0.statFuBusy::SimdFloatReduceCmp            0      0.00%     97.18% # attempts to use FU when none available (Count)
system.cpu0.statFuBusy::SimdAes                     0      0.00%     97.18% # attempts to use FU when none available (Count)
system.cpu0.statFuBusy::SimdAesMix                  0      0.00%     97.18% # attempts to use FU when none available (Count)
system.cpu0.statFuBusy::SimdSha1Hash                0      0.00%     97.18% # attempts to use FU when none available (Count)
system.cpu0.statFuBusy::SimdSha1Hash2               0      0.00%     97.18% # attempts to use FU when none available (Count)
system.cpu0.statFuBusy::SimdSha256Hash              0      0.00%     97.18% # attempts to use FU when none available (Count)
system.cpu0.statFuBusy::SimdSha256Hash2             0      0.00%     97.18% # attempts to use FU when none available (Count)
system.cpu0.statFuBusy::SimdShaSigma2               0      0.00%     97.18% # attempts to use FU when none available (Count)
system.cpu0.statFuBusy::SimdShaSigma3               0      0.00%     97.18% # attempts to use FU when none available (Count)
system.cpu0.statFuBusy::SimdPredAlu                 0      0.00%     97.18% # attempts to use FU when none available (Count)
system.cpu0.statFuBusy::MemRead                 25717      2.02%     99.20% # attempts to use FU when none available (Count)
system.cpu0.statFuBusy::MemWrite                 9172      0.72%     99.92% # attempts to use FU when none available (Count)
system.cpu0.statFuBusy::FloatMemRead              748      0.06%     99.98% # attempts to use FU when none available (Count)
system.cpu0.statFuBusy::FloatMemWrite             242      0.02%    100.00% # attempts to use FU when none available (Count)
system.cpu0.statFuBusy::IprAccess                   0      0.00%    100.00% # attempts to use FU when none available (Count)
system.cpu0.statFuBusy::InstPrefetch                0      0.00%    100.00% # attempts to use FU when none available (Count)
system.cpu0.statIssuedInstType_0::No_OpClass       105610      0.38%      0.38% # Number of instructions issued per FU type, per thread (Count)
system.cpu0.statIssuedInstType_0::IntAlu     23764667     84.68%     85.05% # Number of instructions issued per FU type, per thread (Count)
system.cpu0.statIssuedInstType_0::IntMult       121625      0.43%     85.49% # Number of instructions issued per FU type, per thread (Count)
system.cpu0.statIssuedInstType_0::IntDiv        40529      0.14%     85.63% # Number of instructions issued per FU type, per thread (Count)
system.cpu0.statIssuedInstType_0::FloatAdd         8601      0.03%     85.66% # Number of instructions issued per FU type, per thread (Count)
system.cpu0.statIssuedInstType_0::FloatCmp            0      0.00%     85.66% # Number of instructions issued per FU type, per thread (Count)
system.cpu0.statIssuedInstType_0::FloatCvt         2562      0.01%     85.67% # Number of instructions issued per FU type, per thread (Count)
system.cpu0.statIssuedInstType_0::FloatMult            0      0.00%     85.67% # Number of instructions issued per FU type, per thread (Count)
system.cpu0.statIssuedInstType_0::FloatMultAcc            0      0.00%     85.67% # Number of instructions issued per FU type, per thread (Count)
system.cpu0.statIssuedInstType_0::FloatDiv            0      0.00%     85.67% # Number of instructions issued per FU type, per thread (Count)
system.cpu0.statIssuedInstType_0::FloatMisc            0      0.00%     85.67% # Number of instructions issued per FU type, per thread (Count)
system.cpu0.statIssuedInstType_0::FloatSqrt            0      0.00%     85.67% # Number of instructions issued per FU type, per thread (Count)
system.cpu0.statIssuedInstType_0::SimdAdd         7783      0.03%     85.70% # Number of instructions issued per FU type, per thread (Count)
system.cpu0.statIssuedInstType_0::SimdAddAcc            0      0.00%     85.70% # Number of instructions issued per FU type, per thread (Count)
system.cpu0.statIssuedInstType_0::SimdAlu        16027      0.06%     85.75% # Number of instructions issued per FU type, per thread (Count)
system.cpu0.statIssuedInstType_0::SimdCmp            8      0.00%     85.75% # Number of instructions issued per FU type, per thread (Count)
system.cpu0.statIssuedInstType_0::SimdCvt        16871      0.06%     85.81% # Number of instructions issued per FU type, per thread (Count)
system.cpu0.statIssuedInstType_0::SimdMisc        14877      0.05%     85.87% # Number of instructions issued per FU type, per thread (Count)
system.cpu0.statIssuedInstType_0::SimdMult            0      0.00%     85.87% # Number of instructions issued per FU type, per thread (Count)
system.cpu0.statIssuedInstType_0::SimdMultAcc            0      0.00%     85.87% # Number of instructions issued per FU type, per thread (Count)
system.cpu0.statIssuedInstType_0::SimdShift         2313      0.01%     85.88% # Number of instructions issued per FU type, per thread (Count)
system.cpu0.statIssuedInstType_0::SimdShiftAcc            0      0.00%     85.88% # Number of instructions issued per FU type, per thread (Count)
system.cpu0.statIssuedInstType_0::SimdDiv            0      0.00%     85.88% # Number of instructions issued per FU type, per thread (Count)
system.cpu0.statIssuedInstType_0::SimdSqrt            0      0.00%     85.88% # Number of instructions issued per FU type, per thread (Count)
system.cpu0.statIssuedInstType_0::SimdFloatAdd            7      0.00%     85.88% # Number of instructions issued per FU type, per thread (Count)
system.cpu0.statIssuedInstType_0::SimdFloatAlu            0      0.00%     85.88% # Number of instructions issued per FU type, per thread (Count)
system.cpu0.statIssuedInstType_0::SimdFloatCmp            0      0.00%     85.88% # Number of instructions issued per FU type, per thread (Count)
system.cpu0.statIssuedInstType_0::SimdFloatCvt           10      0.00%     85.88% # Number of instructions issued per FU type, per thread (Count)
system.cpu0.statIssuedInstType_0::SimdFloatDiv            3      0.00%     85.88% # Number of instructions issued per FU type, per thread (Count)
system.cpu0.statIssuedInstType_0::SimdFloatMisc            0      0.00%     85.88% # Number of instructions issued per FU type, per thread (Count)
system.cpu0.statIssuedInstType_0::SimdFloatMult            0      0.00%     85.88% # Number of instructions issued per FU type, per thread (Count)
system.cpu0.statIssuedInstType_0::SimdFloatMultAcc            0      0.00%     85.88% # Number of instructions issued per FU type, per thread (Count)
system.cpu0.statIssuedInstType_0::SimdFloatSqrt            0      0.00%     85.88% # Number of instructions issued per FU type, per thread (Count)
system.cpu0.statIssuedInstType_0::SimdReduceAdd            0      0.00%     85.88% # Number of instructions issued per FU type, per thread (Count)
system.cpu0.statIssuedInstType_0::SimdReduceAlu            0      0.00%     85.88% # Number of instructions issued per FU type, per thread (Count)
system.cpu0.statIssuedInstType_0::SimdReduceCmp            0      0.00%     85.88% # Number of instructions issued per FU type, per thread (Count)
system.cpu0.statIssuedInstType_0::SimdFloatReduceAdd            0      0.00%     85.88% # Number of instructions issued per FU type, per thread (Count)
system.cpu0.statIssuedInstType_0::SimdFloatReduceCmp            0      0.00%     85.88% # Number of instructions issued per FU type, per thread (Count)
system.cpu0.statIssuedInstType_0::SimdAes            0      0.00%     85.88% # Number of instructions issued per FU type, per thread (Count)
system.cpu0.statIssuedInstType_0::SimdAesMix            0      0.00%     85.88% # Number of instructions issued per FU type, per thread (Count)
system.cpu0.statIssuedInstType_0::SimdSha1Hash            0      0.00%     85.88% # Number of instructions issued per FU type, per thread (Count)
system.cpu0.statIssuedInstType_0::SimdSha1Hash2            0      0.00%     85.88% # Number of instructions issued per FU type, per thread (Count)
system.cpu0.statIssuedInstType_0::SimdSha256Hash            0      0.00%     85.88% # Number of instructions issued per FU type, per thread (Count)
system.cpu0.statIssuedInstType_0::SimdSha256Hash2            0      0.00%     85.88% # Number of instructions issued per FU type, per thread (Count)
system.cpu0.statIssuedInstType_0::SimdShaSigma2            0      0.00%     85.88% # Number of instructions issued per FU type, per thread (Count)
system.cpu0.statIssuedInstType_0::SimdShaSigma3            0      0.00%     85.88% # Number of instructions issued per FU type, per thread (Count)
system.cpu0.statIssuedInstType_0::SimdPredAlu            0      0.00%     85.88% # Number of instructions issued per FU type, per thread (Count)
system.cpu0.statIssuedInstType_0::MemRead      2818199     10.04%     95.92% # Number of instructions issued per FU type, per thread (Count)
system.cpu0.statIssuedInstType_0::MemWrite      1102575      3.93%     99.85% # Number of instructions issued per FU type, per thread (Count)
system.cpu0.statIssuedInstType_0::FloatMemRead        25470      0.09%     99.94% # Number of instructions issued per FU type, per thread (Count)
system.cpu0.statIssuedInstType_0::FloatMemWrite        17693      0.06%    100.00% # Number of instructions issued per FU type, per thread (Count)
system.cpu0.statIssuedInstType_0::IprAccess            0      0.00%    100.00% # Number of instructions issued per FU type, per thread (Count)
system.cpu0.statIssuedInstType_0::InstPrefetch            0      0.00%    100.00% # Number of instructions issued per FU type, per thread (Count)
system.cpu0.statIssuedInstType_0::total      28065430                       # Number of instructions issued per FU type, per thread (Count)
system.cpu0.issueRate                        2.029111                       # Inst issue rate ((Count/Cycle))
system.cpu0.fuBusy                            1273470                       # FU busy when requested (Count)
system.cpu0.fuBusyRate                       0.045375                       # FU busy rate (busy events/executed inst) ((Count/Count))
system.cpu0.intInstQueueReads                70805326                       # Number of integer instruction queue reads (Count)
system.cpu0.intInstQueueWrites               34204986                       # Number of integer instruction queue writes (Count)
system.cpu0.intInstQueueWakeupAccesses       27703802                       # Number of integer instruction queue wakeup accesses (Count)
system.cpu0.fpInstQueueReads                   234533                       # Number of floating instruction queue reads (Count)
system.cpu0.fpInstQueueWrites                  161238                       # Number of floating instruction queue writes (Count)
system.cpu0.fpInstQueueWakeupAccesses          112552                       # Number of floating instruction queue wakeup accesses (Count)
system.cpu0.vecInstQueueReads                       0                       # Number of vector instruction queue reads (Count)
system.cpu0.vecInstQueueWrites                      0                       # Number of vector instruction queue writes (Count)
system.cpu0.vecInstQueueWakeupAccesses              0                       # Number of vector instruction queue wakeup accesses (Count)
system.cpu0.intAluAccesses                   29115036                       # Number of integer alu accesses (Count)
system.cpu0.fpAluAccesses                      118254                       # Number of floating point alu accesses (Count)
system.cpu0.vecAluAccesses                          0                       # Number of vector alu accesses (Count)
system.cpu0.numInsts                         27925943                       # Number of executed instructions (Count)
system.cpu0.numLoadInsts                      2806539                       # Number of load instructions executed (Count)
system.cpu0.numSquashedInsts                   139487                       # Number of squashed instructions skipped in execute (Count)
system.cpu0.numSwp                                  0                       # Number of swp insts executed (Count)
system.cpu0.numNop                                  0                       # Number of nop insts executed (Count)
system.cpu0.numRefs                           3916691                       # Number of memory reference insts executed (Count)
system.cpu0.numBranches                       3379540                       # Number of branches executed (Count)
system.cpu0.numStoreInsts                     1110152                       # Number of stores executed (Count)
system.cpu0.numRate                          2.019026                       # Inst execution rate ((Count/Cycle))
system.cpu0.timesIdled                           2469                       # Number of times that the entire CPU went into an idle state and unscheduled itself (Count)
system.cpu0.idleCycles                         303046                       # Total number of cycles that the CPU has spent unscheduled due to idling (Cycle)
system.cpu0.committedInsts                   13093343                       # Number of Instructions Simulated (Count)
system.cpu0.committedOps                     24987724                       # Number of Ops (including micro ops) Simulated (Count)
system.cpu0.cpi                              1.056368                       # CPI: Cycles Per Instruction ((Cycle/Count))
system.cpu0.totalCpi                         1.056368                       # CPI: Total CPI of All Threads ((Cycle/Count))
system.cpu0.ipc                              0.946640                       # IPC: Instructions Per Cycle ((Count/Cycle))
system.cpu0.totalIpc                         0.946640                       # IPC: Total IPC of All Threads ((Count/Cycle))
system.cpu0.intRegfileReads                  39748606                       # Number of integer regfile reads (Count)
system.cpu0.intRegfileWrites                 23354039                       # Number of integer regfile writes (Count)
system.cpu0.fpRegfileReads                     152530                       # Number of floating regfile reads (Count)
system.cpu0.fpRegfileWrites                     84831                       # Number of floating regfile writes (Count)
system.cpu0.ccRegfileReads                   19089622                       # number of cc regfile reads (Count)
system.cpu0.ccRegfileWrites                  12121750                       # number of cc regfile writes (Count)
system.cpu0.miscRegfileReads                 10980495                       # number of misc regfile reads (Count)
system.cpu0.miscRegfileWrites                    1296                       # number of misc regfile writes (Count)
system.cpu0.MemDepUnit__0.insertedLoads       3042304                       # Number of loads inserted to the mem dependence unit. (Count)
system.cpu0.MemDepUnit__0.insertedStores      1207058                       # Number of stores inserted to the mem dependence unit. (Count)
system.cpu0.MemDepUnit__0.conflictingLoads       228109                       # Number of conflicting loads. (Count)
system.cpu0.MemDepUnit__0.conflictingStores        72549                       # Number of conflicting stores. (Count)
system.cpu0.MemDepUnit__1.insertedLoads             0                       # Number of loads inserted to the mem dependence unit. (Count)
system.cpu0.MemDepUnit__1.insertedStores            0                       # Number of stores inserted to the mem dependence unit. (Count)
system.cpu0.MemDepUnit__1.conflictingLoads            0                       # Number of conflicting loads. (Count)
system.cpu0.MemDepUnit__1.conflictingStores            0                       # Number of conflicting stores. (Count)
system.cpu0.MemDepUnit__2.insertedLoads             0                       # Number of loads inserted to the mem dependence unit. (Count)
system.cpu0.MemDepUnit__2.insertedStores            0                       # Number of stores inserted to the mem dependence unit. (Count)
system.cpu0.MemDepUnit__2.conflictingLoads            0                       # Number of conflicting loads. (Count)
system.cpu0.MemDepUnit__2.conflictingStores            0                       # Number of conflicting stores. (Count)
system.cpu0.MemDepUnit__3.insertedLoads             0                       # Number of loads inserted to the mem dependence unit. (Count)
system.cpu0.MemDepUnit__3.insertedStores            0                       # Number of stores inserted to the mem dependence unit. (Count)
system.cpu0.MemDepUnit__3.conflictingLoads            0                       # Number of conflicting loads. (Count)
system.cpu0.MemDepUnit__3.conflictingStores            0                       # Number of conflicting stores. (Count)
system.cpu0.branchPred.lookups                3977158                       # Number of BP lookups (Count)
system.cpu0.branchPred.condPredicted          3700494                       # Number of conditional branches predicted (Count)
system.cpu0.branchPred.condIncorrect            82552                       # Number of conditional branches incorrect (Count)
system.cpu0.branchPred.BTBLookups             2389700                       # Number of BTB lookups (Count)
system.cpu0.branchPred.BTBHits                2384872                       # Number of BTB hits (Count)
system.cpu0.branchPred.BTBHitRatio           0.997980                       # BTB Hit Ratio (Ratio)
system.cpu0.branchPred.RASUsed                  49551                       # Number of times the RAS was used to get a target. (Count)
system.cpu0.branchPred.RASIncorrect                23                       # Number of incorrect RAS predictions. (Count)
system.cpu0.branchPred.indirectLookups          47819                       # Number of indirect predictor lookups. (Count)
system.cpu0.branchPred.indirectHits             38774                       # Number of indirect target hits. (Count)
system.cpu0.branchPred.indirectMisses            9045                       # Number of indirect misses. (Count)
system.cpu0.branchPred.indirectMispredicted         1648                       # Number of mispredicted indirect branches. (Count)
system.cpu0.commit.commitSquashedInsts        4685490                       # The number of squashed insts skipped by commit (Count)
system.cpu0.commit.commitNonSpecStalls          29160                       # The number of times commit has been forced to stall to communicate backwards (Count)
system.cpu0.commit.branchMispredicts            82402                       # The number of times a branch was mispredicted (Count)
system.cpu0.commit.numCommittedDist::samples     12875232                       # Number of insts commited each cycle (Count)
system.cpu0.commit.numCommittedDist::mean     1.940759                       # Number of insts commited each cycle (Count)
system.cpu0.commit.numCommittedDist::stdev     2.950499                       # Number of insts commited each cycle (Count)
system.cpu0.commit.numCommittedDist::underflows            0      0.00%      0.00% # Number of insts commited each cycle (Count)
system.cpu0.commit.numCommittedDist::0        7663269     59.52%     59.52% # Number of insts commited each cycle (Count)
system.cpu0.commit.numCommittedDist::1         976217      7.58%     67.10% # Number of insts commited each cycle (Count)
system.cpu0.commit.numCommittedDist::2         340490      2.64%     69.75% # Number of insts commited each cycle (Count)
system.cpu0.commit.numCommittedDist::3        1037136      8.06%     77.80% # Number of insts commited each cycle (Count)
system.cpu0.commit.numCommittedDist::4         281356      2.19%     79.99% # Number of insts commited each cycle (Count)
system.cpu0.commit.numCommittedDist::5         314564      2.44%     82.43% # Number of insts commited each cycle (Count)
system.cpu0.commit.numCommittedDist::6         205829      1.60%     84.03% # Number of insts commited each cycle (Count)
system.cpu0.commit.numCommittedDist::7         165067      1.28%     85.31% # Number of insts commited each cycle (Count)
system.cpu0.commit.numCommittedDist::8        1891304     14.69%    100.00% # Number of insts commited each cycle (Count)
system.cpu0.commit.numCommittedDist::overflows            0      0.00%    100.00% # Number of insts commited each cycle (Count)
system.cpu0.commit.numCommittedDist::min_value            0                       # Number of insts commited each cycle (Count)
system.cpu0.commit.numCommittedDist::max_value            8                       # Number of insts commited each cycle (Count)
system.cpu0.commit.numCommittedDist::total     12875232                       # Number of insts commited each cycle (Count)
system.cpu0.commit.instsCommitted            13093343                       # Number of instructions committed (Count)
system.cpu0.commit.opsCommitted              24987724                       # Number of ops (including micro ops) committed (Count)
system.cpu0.commit.memRefs                    3436531                       # Number of memory references committed (Count)
system.cpu0.commit.loads                      2425840                       # Number of loads committed (Count)
system.cpu0.commit.amos                             0                       # Number of atomic instructions committed (Count)
system.cpu0.commit.membars                      18576                       # Number of memory barriers committed (Count)
system.cpu0.commit.branches                   3174388                       # Number of branches committed (Count)
system.cpu0.commit.vectorInstructions               0                       # Number of committed Vector instructions. (Count)
system.cpu0.commit.floating                     96484                       # Number of committed floating point instructions. (Count)
system.cpu0.commit.integer                   24822528                       # Number of committed integer instructions. (Count)
system.cpu0.commit.functionCalls                44854                       # Number of function calls committed. (Count)
system.cpu0.commit.committedInstType_0::No_OpClass        87205      0.35%      0.35% # Class of committed instruction (Count)
system.cpu0.commit.committedInstType_0::IntAlu     21247992     85.03%     85.38% # Class of committed instruction (Count)
system.cpu0.commit.committedInstType_0::IntMult       120804      0.48%     85.87% # Class of committed instruction (Count)
system.cpu0.commit.committedInstType_0::IntDiv        37798      0.15%     86.02% # Class of committed instruction (Count)
system.cpu0.commit.committedInstType_0::FloatAdd         6363      0.03%     86.04% # Class of committed instruction (Count)
system.cpu0.commit.committedInstType_0::FloatCmp            0      0.00%     86.04% # Class of committed instruction (Count)
system.cpu0.commit.committedInstType_0::FloatCvt         2304      0.01%     86.05% # Class of committed instruction (Count)
system.cpu0.commit.committedInstType_0::FloatMult            0      0.00%     86.05% # Class of committed instruction (Count)
system.cpu0.commit.committedInstType_0::FloatMultAcc            0      0.00%     86.05% # Class of committed instruction (Count)
system.cpu0.commit.committedInstType_0::FloatDiv            0      0.00%     86.05% # Class of committed instruction (Count)
system.cpu0.commit.committedInstType_0::FloatMisc            0      0.00%     86.05% # Class of committed instruction (Count)
system.cpu0.commit.committedInstType_0::FloatSqrt            0      0.00%     86.05% # Class of committed instruction (Count)
system.cpu0.commit.committedInstType_0::SimdAdd         7130      0.03%     86.08% # Class of committed instruction (Count)
system.cpu0.commit.committedInstType_0::SimdAddAcc            0      0.00%     86.08% # Class of committed instruction (Count)
system.cpu0.commit.committedInstType_0::SimdAlu        13046      0.05%     86.13% # Class of committed instruction (Count)
system.cpu0.commit.committedInstType_0::SimdCmp            6      0.00%     86.13% # Class of committed instruction (Count)
system.cpu0.commit.committedInstType_0::SimdCvt        14648      0.06%     86.19% # Class of committed instruction (Count)
system.cpu0.commit.committedInstType_0::SimdMisc        12815      0.05%     86.24% # Class of committed instruction (Count)
system.cpu0.commit.committedInstType_0::SimdMult            0      0.00%     86.24% # Class of committed instruction (Count)
system.cpu0.commit.committedInstType_0::SimdMultAcc            0      0.00%     86.24% # Class of committed instruction (Count)
system.cpu0.commit.committedInstType_0::SimdShift         1070      0.00%     86.25% # Class of committed instruction (Count)
system.cpu0.commit.committedInstType_0::SimdShiftAcc            0      0.00%     86.25% # Class of committed instruction (Count)
system.cpu0.commit.committedInstType_0::SimdDiv            0      0.00%     86.25% # Class of committed instruction (Count)
system.cpu0.commit.committedInstType_0::SimdSqrt            0      0.00%     86.25% # Class of committed instruction (Count)
system.cpu0.commit.committedInstType_0::SimdFloatAdd            4      0.00%     86.25% # Class of committed instruction (Count)
system.cpu0.commit.committedInstType_0::SimdFloatAlu            0      0.00%     86.25% # Class of committed instruction (Count)
system.cpu0.commit.committedInstType_0::SimdFloatCmp            0      0.00%     86.25% # Class of committed instruction (Count)
system.cpu0.commit.committedInstType_0::SimdFloatCvt            6      0.00%     86.25% # Class of committed instruction (Count)
system.cpu0.commit.committedInstType_0::SimdFloatDiv            2      0.00%     86.25% # Class of committed instruction (Count)
system.cpu0.commit.committedInstType_0::SimdFloatMisc            0      0.00%     86.25% # Class of committed instruction (Count)
system.cpu0.commit.committedInstType_0::SimdFloatMult            0      0.00%     86.25% # Class of committed instruction (Count)
system.cpu0.commit.committedInstType_0::SimdFloatMultAcc            0      0.00%     86.25% # Class of committed instruction (Count)
system.cpu0.commit.committedInstType_0::SimdFloatSqrt            0      0.00%     86.25% # Class of committed instruction (Count)
system.cpu0.commit.committedInstType_0::SimdReduceAdd            0      0.00%     86.25% # Class of committed instruction (Count)
system.cpu0.commit.committedInstType_0::SimdReduceAlu            0      0.00%     86.25% # Class of committed instruction (Count)
system.cpu0.commit.committedInstType_0::SimdReduceCmp            0      0.00%     86.25% # Class of committed instruction (Count)
system.cpu0.commit.committedInstType_0::SimdFloatReduceAdd            0      0.00%     86.25% # Class of committed instruction (Count)
system.cpu0.commit.committedInstType_0::SimdFloatReduceCmp            0      0.00%     86.25% # Class of committed instruction (Count)
system.cpu0.commit.committedInstType_0::SimdAes            0      0.00%     86.25% # Class of committed instruction (Count)
system.cpu0.commit.committedInstType_0::SimdAesMix            0      0.00%     86.25% # Class of committed instruction (Count)
system.cpu0.commit.committedInstType_0::SimdSha1Hash            0      0.00%     86.25% # Class of committed instruction (Count)
system.cpu0.commit.committedInstType_0::SimdSha1Hash2            0      0.00%     86.25% # Class of committed instruction (Count)
system.cpu0.commit.committedInstType_0::SimdSha256Hash            0      0.00%     86.25% # Class of committed instruction (Count)
system.cpu0.commit.committedInstType_0::SimdSha256Hash2            0      0.00%     86.25% # Class of committed instruction (Count)
system.cpu0.commit.committedInstType_0::SimdShaSigma2            0      0.00%     86.25% # Class of committed instruction (Count)
system.cpu0.commit.committedInstType_0::SimdShaSigma3            0      0.00%     86.25% # Class of committed instruction (Count)
system.cpu0.commit.committedInstType_0::SimdPredAlu            0      0.00%     86.25% # Class of committed instruction (Count)
system.cpu0.commit.committedInstType_0::MemRead      2405753      9.63%     95.87% # Class of committed instruction (Count)
system.cpu0.commit.committedInstType_0::MemWrite       994700      3.98%     99.86% # Class of committed instruction (Count)
system.cpu0.commit.committedInstType_0::FloatMemRead        20087      0.08%     99.94% # Class of committed instruction (Count)
system.cpu0.commit.committedInstType_0::FloatMemWrite        15991      0.06%    100.00% # Class of committed instruction (Count)
system.cpu0.commit.committedInstType_0::IprAccess            0      0.00%    100.00% # Class of committed instruction (Count)
system.cpu0.commit.committedInstType_0::InstPrefetch            0      0.00%    100.00% # Class of committed instruction (Count)
system.cpu0.commit.committedInstType_0::total     24987724                       # Class of committed instruction (Count)
system.cpu0.commit.commitEligibleSamples      1891304                       # number cycles where commit BW limit reached (Cycle)
system.cpu0.dcache.demandHits::cpu0.data      3305756                       # number of demand (read+write) hits (Count)
system.cpu0.dcache.demandHits::total          3305756                       # number of demand (read+write) hits (Count)
system.cpu0.dcache.overallHits::cpu0.data      3305756                       # number of overall hits (Count)
system.cpu0.dcache.overallHits::total         3305756                       # number of overall hits (Count)
system.cpu0.dcache.demandMisses::cpu0.data       398177                       # number of demand (read+write) misses (Count)
system.cpu0.dcache.demandMisses::total         398177                       # number of demand (read+write) misses (Count)
system.cpu0.dcache.overallMisses::cpu0.data       398177                       # number of overall misses (Count)
system.cpu0.dcache.overallMisses::total        398177                       # number of overall misses (Count)
system.cpu0.dcache.demandMissLatency::cpu0.data  17717582478                       # number of demand (read+write) miss ticks (Tick)
system.cpu0.dcache.demandMissLatency::total  17717582478                       # number of demand (read+write) miss ticks (Tick)
system.cpu0.dcache.overallMissLatency::cpu0.data  17717582478                       # number of overall miss ticks (Tick)
system.cpu0.dcache.overallMissLatency::total  17717582478                       # number of overall miss ticks (Tick)
system.cpu0.dcache.demandAccesses::cpu0.data      3703933                       # number of demand (read+write) accesses (Count)
system.cpu0.dcache.demandAccesses::total      3703933                       # number of demand (read+write) accesses (Count)
system.cpu0.dcache.overallAccesses::cpu0.data      3703933                       # number of overall (read+write) accesses (Count)
system.cpu0.dcache.overallAccesses::total      3703933                       # number of overall (read+write) accesses (Count)
system.cpu0.dcache.demandMissRate::cpu0.data     0.107501                       # miss rate for demand accesses (Ratio)
system.cpu0.dcache.demandMissRate::total     0.107501                       # miss rate for demand accesses (Ratio)
system.cpu0.dcache.overallMissRate::cpu0.data     0.107501                       # miss rate for overall accesses (Ratio)
system.cpu0.dcache.overallMissRate::total     0.107501                       # miss rate for overall accesses (Ratio)
system.cpu0.dcache.demandAvgMissLatency::cpu0.data 44496.750134                       # average overall miss latency ((Cycle/Count))
system.cpu0.dcache.demandAvgMissLatency::total 44496.750134                       # average overall miss latency ((Cycle/Count))
system.cpu0.dcache.overallAvgMissLatency::cpu0.data 44496.750134                       # average overall miss latency ((Cycle/Count))
system.cpu0.dcache.overallAvgMissLatency::total 44496.750134                       # average overall miss latency ((Cycle/Count))
system.cpu0.dcache.blockedCycles::no_mshrs        87290                       # number of cycles access was blocked (Cycle)
system.cpu0.dcache.blockedCycles::no_targets         2332                       # number of cycles access was blocked (Cycle)
system.cpu0.dcache.blockedCauses::no_mshrs         3524                       # number of times access was blocked (Count)
system.cpu0.dcache.blockedCauses::no_targets           76                       # number of times access was blocked (Count)
system.cpu0.dcache.avgBlocked::no_mshrs     24.770148                       # average number of cycles each access was blocked ((Cycle/Count))
system.cpu0.dcache.avgBlocked::no_targets    30.684211                       # average number of cycles each access was blocked ((Cycle/Count))
system.cpu0.dcache.writebacks::writebacks        54450                       # number of writebacks (Count)
system.cpu0.dcache.writebacks::total            54450                       # number of writebacks (Count)
system.cpu0.dcache.demandMshrHits::cpu0.data       284500                       # number of demand (read+write) MSHR hits (Count)
system.cpu0.dcache.demandMshrHits::total       284500                       # number of demand (read+write) MSHR hits (Count)
system.cpu0.dcache.overallMshrHits::cpu0.data       284500                       # number of overall MSHR hits (Count)
system.cpu0.dcache.overallMshrHits::total       284500                       # number of overall MSHR hits (Count)
system.cpu0.dcache.demandMshrMisses::cpu0.data       113677                       # number of demand (read+write) MSHR misses (Count)
system.cpu0.dcache.demandMshrMisses::total       113677                       # number of demand (read+write) MSHR misses (Count)
system.cpu0.dcache.overallMshrMisses::cpu0.data       113677                       # number of overall MSHR misses (Count)
system.cpu0.dcache.overallMshrMisses::total       113677                       # number of overall MSHR misses (Count)
system.cpu0.dcache.demandMshrMissLatency::cpu0.data   5553293478                       # number of demand (read+write) MSHR miss ticks (Tick)
system.cpu0.dcache.demandMshrMissLatency::total   5553293478                       # number of demand (read+write) MSHR miss ticks (Tick)
system.cpu0.dcache.overallMshrMissLatency::cpu0.data   5553293478                       # number of overall MSHR miss ticks (Tick)
system.cpu0.dcache.overallMshrMissLatency::total   5553293478                       # number of overall MSHR miss ticks (Tick)
system.cpu0.dcache.demandMshrMissRate::cpu0.data     0.030691                       # mshr miss ratio for demand accesses (Ratio)
system.cpu0.dcache.demandMshrMissRate::total     0.030691                       # mshr miss ratio for demand accesses (Ratio)
system.cpu0.dcache.overallMshrMissRate::cpu0.data     0.030691                       # mshr miss ratio for overall accesses (Ratio)
system.cpu0.dcache.overallMshrMissRate::total     0.030691                       # mshr miss ratio for overall accesses (Ratio)
system.cpu0.dcache.demandAvgMshrMissLatency::cpu0.data 48851.513305                       # average overall mshr miss latency ((Cycle/Count))
system.cpu0.dcache.demandAvgMshrMissLatency::total 48851.513305                       # average overall mshr miss latency ((Cycle/Count))
system.cpu0.dcache.overallAvgMshrMissLatency::cpu0.data 48851.513305                       # average overall mshr miss latency ((Cycle/Count))
system.cpu0.dcache.overallAvgMshrMissLatency::total 48851.513305                       # average overall mshr miss latency ((Cycle/Count))
system.cpu0.dcache.replacements                106959                       # number of replacements (Count)
system.cpu0.dcache.ReadReq.hits::cpu0.data      2326726                       # number of ReadReq hits (Count)
system.cpu0.dcache.ReadReq.hits::total        2326726                       # number of ReadReq hits (Count)
system.cpu0.dcache.ReadReq.misses::cpu0.data       366503                       # number of ReadReq misses (Count)
system.cpu0.dcache.ReadReq.misses::total       366503                       # number of ReadReq misses (Count)
system.cpu0.dcache.ReadReq.missLatency::cpu0.data  15653442500                       # number of ReadReq miss ticks (Tick)
system.cpu0.dcache.ReadReq.missLatency::total  15653442500                       # number of ReadReq miss ticks (Tick)
system.cpu0.dcache.ReadReq.accesses::cpu0.data      2693229                       # number of ReadReq accesses(hits+misses) (Count)
system.cpu0.dcache.ReadReq.accesses::total      2693229                       # number of ReadReq accesses(hits+misses) (Count)
system.cpu0.dcache.ReadReq.missRate::cpu0.data     0.136083                       # miss rate for ReadReq accesses (Ratio)
system.cpu0.dcache.ReadReq.missRate::total     0.136083                       # miss rate for ReadReq accesses (Ratio)
system.cpu0.dcache.ReadReq.avgMissLatency::cpu0.data 42710.271130                       # average ReadReq miss latency ((Tick/Count))
system.cpu0.dcache.ReadReq.avgMissLatency::total 42710.271130                       # average ReadReq miss latency ((Tick/Count))
system.cpu0.dcache.ReadReq.mshrHits::cpu0.data       284491                       # number of ReadReq MSHR hits (Count)
system.cpu0.dcache.ReadReq.mshrHits::total       284491                       # number of ReadReq MSHR hits (Count)
system.cpu0.dcache.ReadReq.mshrMisses::cpu0.data        82012                       # number of ReadReq MSHR misses (Count)
system.cpu0.dcache.ReadReq.mshrMisses::total        82012                       # number of ReadReq MSHR misses (Count)
system.cpu0.dcache.ReadReq.mshrMissLatency::cpu0.data   3521285500                       # number of ReadReq MSHR miss ticks (Tick)
system.cpu0.dcache.ReadReq.mshrMissLatency::total   3521285500                       # number of ReadReq MSHR miss ticks (Tick)
system.cpu0.dcache.ReadReq.mshrMissRate::cpu0.data     0.030451                       # mshr miss rate for ReadReq accesses (Ratio)
system.cpu0.dcache.ReadReq.mshrMissRate::total     0.030451                       # mshr miss rate for ReadReq accesses (Ratio)
system.cpu0.dcache.ReadReq.avgMshrMissLatency::cpu0.data 42936.222748                       # average ReadReq mshr miss latency ((Tick/Count))
system.cpu0.dcache.ReadReq.avgMshrMissLatency::total 42936.222748                       # average ReadReq mshr miss latency ((Tick/Count))
system.cpu0.dcache.WriteReq.hits::cpu0.data       979030                       # number of WriteReq hits (Count)
system.cpu0.dcache.WriteReq.hits::total        979030                       # number of WriteReq hits (Count)
system.cpu0.dcache.WriteReq.misses::cpu0.data        31674                       # number of WriteReq misses (Count)
system.cpu0.dcache.WriteReq.misses::total        31674                       # number of WriteReq misses (Count)
system.cpu0.dcache.WriteReq.missLatency::cpu0.data   2064139978                       # number of WriteReq miss ticks (Tick)
system.cpu0.dcache.WriteReq.missLatency::total   2064139978                       # number of WriteReq miss ticks (Tick)
system.cpu0.dcache.WriteReq.accesses::cpu0.data      1010704                       # number of WriteReq accesses(hits+misses) (Count)
system.cpu0.dcache.WriteReq.accesses::total      1010704                       # number of WriteReq accesses(hits+misses) (Count)
system.cpu0.dcache.WriteReq.missRate::cpu0.data     0.031339                       # miss rate for WriteReq accesses (Ratio)
system.cpu0.dcache.WriteReq.missRate::total     0.031339                       # miss rate for WriteReq accesses (Ratio)
system.cpu0.dcache.WriteReq.avgMissLatency::cpu0.data 65168.276126                       # average WriteReq miss latency ((Tick/Count))
system.cpu0.dcache.WriteReq.avgMissLatency::total 65168.276126                       # average WriteReq miss latency ((Tick/Count))
system.cpu0.dcache.WriteReq.mshrHits::cpu0.data            9                       # number of WriteReq MSHR hits (Count)
system.cpu0.dcache.WriteReq.mshrHits::total            9                       # number of WriteReq MSHR hits (Count)
system.cpu0.dcache.WriteReq.mshrMisses::cpu0.data        31665                       # number of WriteReq MSHR misses (Count)
system.cpu0.dcache.WriteReq.mshrMisses::total        31665                       # number of WriteReq MSHR misses (Count)
system.cpu0.dcache.WriteReq.mshrMissLatency::cpu0.data   2032007978                       # number of WriteReq MSHR miss ticks (Tick)
system.cpu0.dcache.WriteReq.mshrMissLatency::total   2032007978                       # number of WriteReq MSHR miss ticks (Tick)
system.cpu0.dcache.WriteReq.mshrMissRate::cpu0.data     0.031330                       # mshr miss rate for WriteReq accesses (Ratio)
system.cpu0.dcache.WriteReq.mshrMissRate::total     0.031330                       # mshr miss rate for WriteReq accesses (Ratio)
system.cpu0.dcache.WriteReq.avgMshrMissLatency::cpu0.data 64172.050466                       # average WriteReq mshr miss latency ((Tick/Count))
system.cpu0.dcache.WriteReq.avgMshrMissLatency::total 64172.050466                       # average WriteReq mshr miss latency ((Tick/Count))
system.cpu0.dcache.power_state.pwrStateResidencyTicks::UNDEFINED   6915696000                       # Cumulative time (in ticks) in various power states (Tick)
system.cpu0.dcache.tags.tagsInUse          485.397473                       # Average ticks per tags in use ((Tick/Count))
system.cpu0.dcache.tags.totalRefs             3420981                       # Total number of references to valid blocks. (Count)
system.cpu0.dcache.tags.sampledRefs            107471                       # Sample count of references to valid blocks. (Count)
system.cpu0.dcache.tags.avgRefs             31.831666                       # Average number of references to valid blocks. ((Count/Count))
system.cpu0.dcache.tags.warmupTick             198000                       # The tick when the warmup percentage was hit. (Tick)
system.cpu0.dcache.tags.occupancies::cpu0.data   485.397473                       # Average occupied blocks per tick, per requestor ((Count/Tick))
system.cpu0.dcache.tags.avgOccs::cpu0.data     0.948042                       # Average percentage of cache occupancy ((Ratio/Tick))
system.cpu0.dcache.tags.avgOccs::total       0.948042                       # Average percentage of cache occupancy ((Ratio/Tick))
system.cpu0.dcache.tags.occupanciesTaskId::1024          512                       # Occupied blocks per task id (Count)
system.cpu0.dcache.tags.ageTaskId_1024::0           79                       # Occupied blocks per task id, per block age (Count)
system.cpu0.dcache.tags.ageTaskId_1024::1          303                       # Occupied blocks per task id, per block age (Count)
system.cpu0.dcache.tags.ageTaskId_1024::2           30                       # Occupied blocks per task id, per block age (Count)
system.cpu0.dcache.tags.ageTaskId_1024::3          100                       # Occupied blocks per task id, per block age (Count)
system.cpu0.dcache.tags.ratioOccsTaskId::1024            1                       # Ratio of occupied blocks and all blocks, per task id (Ratio)
system.cpu0.dcache.tags.tagAccesses           7515337                       # Number of tag accesses (Count)
system.cpu0.dcache.tags.dataAccesses          7515337                       # Number of data accesses (Count)
system.cpu0.dcache.tags.power_state.pwrStateResidencyTicks::UNDEFINED   6915696000                       # Cumulative time (in ticks) in various power states (Tick)
system.cpu0.decode.idleCycles                 1360439                       # Number of cycles decode is idle (Cycle)
system.cpu0.decode.blockedCycles              7417899                       # Number of cycles decode is blocked (Cycle)
system.cpu0.decode.runCycles                  4127303                       # Number of cycles decode is running (Cycle)
system.cpu0.decode.unblockCycles               539444                       # Number of cycles decode is unblocking (Cycle)
system.cpu0.decode.squashCycles                 83262                       # Number of cycles decode is squashing (Cycle)
system.cpu0.decode.branchResolved             2286779                       # Number of times decode resolved a branch (Count)
system.cpu0.decode.branchMispred                 1551                       # Number of times decode detected a branch misprediction (Count)
system.cpu0.decode.decodedInsts              30866995                       # Number of instructions handled by decode (Count)
system.cpu0.decode.squashedInsts                 7200                       # Number of squashed instructions handled by decode (Count)
system.cpu0.dtb_walker_cache.blockedCycles::no_mshrs            0                       # number of cycles access was blocked (Cycle)
system.cpu0.dtb_walker_cache.blockedCycles::no_targets            0                       # number of cycles access was blocked (Cycle)
system.cpu0.dtb_walker_cache.blockedCauses::no_mshrs            0                       # number of times access was blocked (Count)
system.cpu0.dtb_walker_cache.blockedCauses::no_targets            0                       # number of times access was blocked (Count)
system.cpu0.dtb_walker_cache.avgBlocked::no_mshrs          nan                       # average number of cycles each access was blocked ((Cycle/Count))
system.cpu0.dtb_walker_cache.avgBlocked::no_targets          nan                       # average number of cycles each access was blocked ((Cycle/Count))
system.cpu0.dtb_walker_cache.replacements            0                       # number of replacements (Count)
system.cpu0.dtb_walker_cache.power_state.pwrStateResidencyTicks::UNDEFINED   6915696000                       # Cumulative time (in ticks) in various power states (Tick)
system.cpu0.dtb_walker_cache.tags.tagsInUse            0                       # Average ticks per tags in use ((Tick/Count))
system.cpu0.dtb_walker_cache.tags.totalRefs            0                       # Total number of references to valid blocks. (Count)
system.cpu0.dtb_walker_cache.tags.sampledRefs            0                       # Sample count of references to valid blocks. (Count)
system.cpu0.dtb_walker_cache.tags.avgRefs          nan                       # Average number of references to valid blocks. ((Count/Count))
system.cpu0.dtb_walker_cache.tags.warmupTick            0                       # The tick when the warmup percentage was hit. (Tick)
system.cpu0.dtb_walker_cache.tags.tagAccesses            0                       # Number of tag accesses (Count)
system.cpu0.dtb_walker_cache.tags.dataAccesses            0                       # Number of data accesses (Count)
system.cpu0.dtb_walker_cache.tags.power_state.pwrStateResidencyTicks::UNDEFINED   6915696000                       # Cumulative time (in ticks) in various power states (Tick)
system.cpu0.fetch.icacheStallCycles           1370584                       # Number of cycles fetch is stalled on an Icache miss (Cycle)
system.cpu0.fetch.insts                      17137960                       # Number of instructions fetch has processed (Count)
system.cpu0.fetch.branches                    3977158                       # Number of branches that fetch encountered (Count)
system.cpu0.fetch.predictedBranches           2473197                       # Number of branches that fetch has predicted taken (Count)
system.cpu0.fetch.cycles                     12062050                       # Number of cycles fetch has run and was not squashing or blocked (Cycle)
system.cpu0.fetch.squashCycles                 169540                       # Number of cycles fetch has spent squashing (Cycle)
system.cpu0.fetch.miscStallCycles                1433                       # Number of cycles fetch has spent waiting on interrupts, or bad addresses, or out of MSHRs (Cycle)
system.cpu0.fetch.pendingTrapStallCycles         9449                       # Number of stall cycles due to pending traps (Cycle)
system.cpu0.fetch.pendingQuiesceStallCycles           22                       # Number of stall cycles due to pending quiesce instructions (Cycle)
system.cpu0.fetch.icacheWaitRetryStallCycles           39                       # Number of stall cycles due to full MSHR (Cycle)
system.cpu0.fetch.cacheLines                  1233473                       # Number of cache lines fetched (Count)
system.cpu0.fetch.icacheSquashes                12601                       # Number of outstanding Icache misses that were squashed (Count)
system.cpu0.fetch.nisnDist::samples          13528347                       # Number of instructions fetched each cycle (Total) (Count)
system.cpu0.fetch.nisnDist::mean             2.386243                       # Number of instructions fetched each cycle (Total) (Count)
system.cpu0.fetch.nisnDist::stdev            3.287908                       # Number of instructions fetched each cycle (Total) (Count)
system.cpu0.fetch.nisnDist::underflows              0      0.00%      0.00% # Number of instructions fetched each cycle (Total) (Count)
system.cpu0.fetch.nisnDist::0                 8104199     59.91%     59.91% # Number of instructions fetched each cycle (Total) (Count)
system.cpu0.fetch.nisnDist::1                  267567      1.98%     61.88% # Number of instructions fetched each cycle (Total) (Count)
system.cpu0.fetch.nisnDist::2                  509043      3.76%     65.65% # Number of instructions fetched each cycle (Total) (Count)
system.cpu0.fetch.nisnDist::3                  531308      3.93%     69.57% # Number of instructions fetched each cycle (Total) (Count)
system.cpu0.fetch.nisnDist::4                  228899      1.69%     71.27% # Number of instructions fetched each cycle (Total) (Count)
system.cpu0.fetch.nisnDist::5                  238884      1.77%     73.03% # Number of instructions fetched each cycle (Total) (Count)
system.cpu0.fetch.nisnDist::6                  743310      5.49%     78.53% # Number of instructions fetched each cycle (Total) (Count)
system.cpu0.fetch.nisnDist::7                  408627      3.02%     81.55% # Number of instructions fetched each cycle (Total) (Count)
system.cpu0.fetch.nisnDist::8                 2496510     18.45%    100.00% # Number of instructions fetched each cycle (Total) (Count)
system.cpu0.fetch.nisnDist::overflows               0      0.00%    100.00% # Number of instructions fetched each cycle (Total) (Count)
system.cpu0.fetch.nisnDist::min_value               0                       # Number of instructions fetched each cycle (Total) (Count)
system.cpu0.fetch.nisnDist::max_value               8                       # Number of instructions fetched each cycle (Total) (Count)
system.cpu0.fetch.nisnDist::total            13528347                       # Number of instructions fetched each cycle (Total) (Count)
system.cpu0.fetch.branchRate                 0.287546                       # Number of branch fetches per cycle (Ratio)
system.cpu0.fetch.rate                       1.239062                       # Number of inst fetches per cycle ((Count/Cycle))
system.cpu0.icache.demandHits::cpu0.inst      1228815                       # number of demand (read+write) hits (Count)
system.cpu0.icache.demandHits::total          1228815                       # number of demand (read+write) hits (Count)
system.cpu0.icache.overallHits::cpu0.inst      1228815                       # number of overall hits (Count)
system.cpu0.icache.overallHits::total         1228815                       # number of overall hits (Count)
system.cpu0.icache.demandMisses::cpu0.inst         4658                       # number of demand (read+write) misses (Count)
system.cpu0.icache.demandMisses::total           4658                       # number of demand (read+write) misses (Count)
system.cpu0.icache.overallMisses::cpu0.inst         4658                       # number of overall misses (Count)
system.cpu0.icache.overallMisses::total          4658                       # number of overall misses (Count)
system.cpu0.icache.demandMissLatency::cpu0.inst    369208499                       # number of demand (read+write) miss ticks (Tick)
system.cpu0.icache.demandMissLatency::total    369208499                       # number of demand (read+write) miss ticks (Tick)
system.cpu0.icache.overallMissLatency::cpu0.inst    369208499                       # number of overall miss ticks (Tick)
system.cpu0.icache.overallMissLatency::total    369208499                       # number of overall miss ticks (Tick)
system.cpu0.icache.demandAccesses::cpu0.inst      1233473                       # number of demand (read+write) accesses (Count)
system.cpu0.icache.demandAccesses::total      1233473                       # number of demand (read+write) accesses (Count)
system.cpu0.icache.overallAccesses::cpu0.inst      1233473                       # number of overall (read+write) accesses (Count)
system.cpu0.icache.overallAccesses::total      1233473                       # number of overall (read+write) accesses (Count)
system.cpu0.icache.demandMissRate::cpu0.inst     0.003776                       # miss rate for demand accesses (Ratio)
system.cpu0.icache.demandMissRate::total     0.003776                       # miss rate for demand accesses (Ratio)
system.cpu0.icache.overallMissRate::cpu0.inst     0.003776                       # miss rate for overall accesses (Ratio)
system.cpu0.icache.overallMissRate::total     0.003776                       # miss rate for overall accesses (Ratio)
system.cpu0.icache.demandAvgMissLatency::cpu0.inst 79263.310219                       # average overall miss latency ((Cycle/Count))
system.cpu0.icache.demandAvgMissLatency::total 79263.310219                       # average overall miss latency ((Cycle/Count))
system.cpu0.icache.overallAvgMissLatency::cpu0.inst 79263.310219                       # average overall miss latency ((Cycle/Count))
system.cpu0.icache.overallAvgMissLatency::total 79263.310219                       # average overall miss latency ((Cycle/Count))
system.cpu0.icache.blockedCycles::no_mshrs         1527                       # number of cycles access was blocked (Cycle)
system.cpu0.icache.blockedCycles::no_targets            0                       # number of cycles access was blocked (Cycle)
system.cpu0.icache.blockedCauses::no_mshrs           22                       # number of times access was blocked (Count)
system.cpu0.icache.blockedCauses::no_targets            0                       # number of times access was blocked (Count)
system.cpu0.icache.avgBlocked::no_mshrs     69.409091                       # average number of cycles each access was blocked ((Cycle/Count))
system.cpu0.icache.avgBlocked::no_targets          nan                       # average number of cycles each access was blocked ((Cycle/Count))
system.cpu0.icache.writebacks::writebacks         3232                       # number of writebacks (Count)
system.cpu0.icache.writebacks::total             3232                       # number of writebacks (Count)
system.cpu0.icache.demandMshrHits::cpu0.inst          912                       # number of demand (read+write) MSHR hits (Count)
system.cpu0.icache.demandMshrHits::total          912                       # number of demand (read+write) MSHR hits (Count)
system.cpu0.icache.overallMshrHits::cpu0.inst          912                       # number of overall MSHR hits (Count)
system.cpu0.icache.overallMshrHits::total          912                       # number of overall MSHR hits (Count)
system.cpu0.icache.demandMshrMisses::cpu0.inst         3746                       # number of demand (read+write) MSHR misses (Count)
system.cpu0.icache.demandMshrMisses::total         3746                       # number of demand (read+write) MSHR misses (Count)
system.cpu0.icache.overallMshrMisses::cpu0.inst         3746                       # number of overall MSHR misses (Count)
system.cpu0.icache.overallMshrMisses::total         3746                       # number of overall MSHR misses (Count)
system.cpu0.icache.demandMshrMissLatency::cpu0.inst    298473499                       # number of demand (read+write) MSHR miss ticks (Tick)
system.cpu0.icache.demandMshrMissLatency::total    298473499                       # number of demand (read+write) MSHR miss ticks (Tick)
system.cpu0.icache.overallMshrMissLatency::cpu0.inst    298473499                       # number of overall MSHR miss ticks (Tick)
system.cpu0.icache.overallMshrMissLatency::total    298473499                       # number of overall MSHR miss ticks (Tick)
system.cpu0.icache.demandMshrMissRate::cpu0.inst     0.003037                       # mshr miss ratio for demand accesses (Ratio)
system.cpu0.icache.demandMshrMissRate::total     0.003037                       # mshr miss ratio for demand accesses (Ratio)
system.cpu0.icache.overallMshrMissRate::cpu0.inst     0.003037                       # mshr miss ratio for overall accesses (Ratio)
system.cpu0.icache.overallMshrMissRate::total     0.003037                       # mshr miss ratio for overall accesses (Ratio)
system.cpu0.icache.demandAvgMshrMissLatency::cpu0.inst 79677.922851                       # average overall mshr miss latency ((Cycle/Count))
system.cpu0.icache.demandAvgMshrMissLatency::total 79677.922851                       # average overall mshr miss latency ((Cycle/Count))
system.cpu0.icache.overallAvgMshrMissLatency::cpu0.inst 79677.922851                       # average overall mshr miss latency ((Cycle/Count))
system.cpu0.icache.overallAvgMshrMissLatency::total 79677.922851                       # average overall mshr miss latency ((Cycle/Count))
system.cpu0.icache.replacements                  3232                       # number of replacements (Count)
system.cpu0.icache.ReadReq.hits::cpu0.inst      1228815                       # number of ReadReq hits (Count)
system.cpu0.icache.ReadReq.hits::total        1228815                       # number of ReadReq hits (Count)
system.cpu0.icache.ReadReq.misses::cpu0.inst         4658                       # number of ReadReq misses (Count)
system.cpu0.icache.ReadReq.misses::total         4658                       # number of ReadReq misses (Count)
system.cpu0.icache.ReadReq.missLatency::cpu0.inst    369208499                       # number of ReadReq miss ticks (Tick)
system.cpu0.icache.ReadReq.missLatency::total    369208499                       # number of ReadReq miss ticks (Tick)
system.cpu0.icache.ReadReq.accesses::cpu0.inst      1233473                       # number of ReadReq accesses(hits+misses) (Count)
system.cpu0.icache.ReadReq.accesses::total      1233473                       # number of ReadReq accesses(hits+misses) (Count)
system.cpu0.icache.ReadReq.missRate::cpu0.inst     0.003776                       # miss rate for ReadReq accesses (Ratio)
system.cpu0.icache.ReadReq.missRate::total     0.003776                       # miss rate for ReadReq accesses (Ratio)
system.cpu0.icache.ReadReq.avgMissLatency::cpu0.inst 79263.310219                       # average ReadReq miss latency ((Tick/Count))
system.cpu0.icache.ReadReq.avgMissLatency::total 79263.310219                       # average ReadReq miss latency ((Tick/Count))
system.cpu0.icache.ReadReq.mshrHits::cpu0.inst          912                       # number of ReadReq MSHR hits (Count)
system.cpu0.icache.ReadReq.mshrHits::total          912                       # number of ReadReq MSHR hits (Count)
system.cpu0.icache.ReadReq.mshrMisses::cpu0.inst         3746                       # number of ReadReq MSHR misses (Count)
system.cpu0.icache.ReadReq.mshrMisses::total         3746                       # number of ReadReq MSHR misses (Count)
system.cpu0.icache.ReadReq.mshrMissLatency::cpu0.inst    298473499                       # number of ReadReq MSHR miss ticks (Tick)
system.cpu0.icache.ReadReq.mshrMissLatency::total    298473499                       # number of ReadReq MSHR miss ticks (Tick)
system.cpu0.icache.ReadReq.mshrMissRate::cpu0.inst     0.003037                       # mshr miss rate for ReadReq accesses (Ratio)
system.cpu0.icache.ReadReq.mshrMissRate::total     0.003037                       # mshr miss rate for ReadReq accesses (Ratio)
system.cpu0.icache.ReadReq.avgMshrMissLatency::cpu0.inst 79677.922851                       # average ReadReq mshr miss latency ((Tick/Count))
system.cpu0.icache.ReadReq.avgMshrMissLatency::total 79677.922851                       # average ReadReq mshr miss latency ((Tick/Count))
system.cpu0.icache.power_state.pwrStateResidencyTicks::UNDEFINED   6915696000                       # Cumulative time (in ticks) in various power states (Tick)
system.cpu0.icache.tags.tagsInUse          503.785771                       # Average ticks per tags in use ((Tick/Count))
system.cpu0.icache.tags.totalRefs             1232560                       # Total number of references to valid blocks. (Count)
system.cpu0.icache.tags.sampledRefs              3745                       # Sample count of references to valid blocks. (Count)
system.cpu0.icache.tags.avgRefs            329.121495                       # Average number of references to valid blocks. ((Count/Count))
system.cpu0.icache.tags.warmupTick              95000                       # The tick when the warmup percentage was hit. (Tick)
system.cpu0.icache.tags.occupancies::cpu0.inst   503.785771                       # Average occupied blocks per tick, per requestor ((Count/Tick))
system.cpu0.icache.tags.avgOccs::cpu0.inst     0.983957                       # Average percentage of cache occupancy ((Ratio/Tick))
system.cpu0.icache.tags.avgOccs::total       0.983957                       # Average percentage of cache occupancy ((Ratio/Tick))
system.cpu0.icache.tags.occupanciesTaskId::1024          512                       # Occupied blocks per task id (Count)
system.cpu0.icache.tags.ageTaskId_1024::0           98                       # Occupied blocks per task id, per block age (Count)
system.cpu0.icache.tags.ageTaskId_1024::1          302                       # Occupied blocks per task id, per block age (Count)
system.cpu0.icache.tags.ageTaskId_1024::2            5                       # Occupied blocks per task id, per block age (Count)
system.cpu0.icache.tags.ageTaskId_1024::3          107                       # Occupied blocks per task id, per block age (Count)
system.cpu0.icache.tags.ratioOccsTaskId::1024            1                       # Ratio of occupied blocks and all blocks, per task id (Ratio)
system.cpu0.icache.tags.tagAccesses           2470691                       # Number of tag accesses (Count)
system.cpu0.icache.tags.dataAccesses          2470691                       # Number of data accesses (Count)
system.cpu0.icache.tags.power_state.pwrStateResidencyTicks::UNDEFINED   6915696000                       # Cumulative time (in ticks) in various power states (Tick)
system.cpu0.iew.idleCycles                          0                       # Number of cycles IEW is idle (Cycle)
system.cpu0.iew.squashCycles                    83262                       # Number of cycles IEW is squashing (Cycle)
system.cpu0.iew.blockCycles                   3193882                       # Number of cycles IEW is blocking (Cycle)
system.cpu0.iew.unblockCycles                  149926                       # Number of cycles IEW is unblocking (Cycle)
system.cpu0.iew.dispatchedInsts              29676854                       # Number of instructions dispatched to IQ (Count)
system.cpu0.iew.dispSquashedInsts                1667                       # Number of squashed instructions skipped by dispatch (Count)
system.cpu0.iew.dispLoadInsts                 3042304                       # Number of dispatched load instructions (Count)
system.cpu0.iew.dispStoreInsts                1207058                       # Number of dispatched store instructions (Count)
system.cpu0.iew.dispNonSpecInsts                24064                       # Number of dispatched non-speculative instructions (Count)
system.cpu0.iew.iqFullEvents                    37562                       # Number of times the IQ has become full, causing a stall (Count)
system.cpu0.iew.lsqFullEvents                   90109                       # Number of times the LSQ has become full, causing a stall (Count)
system.cpu0.iew.memOrderViolationEvents           261                       # Number of memory order violations (Count)
system.cpu0.iew.predictedTakenIncorrect         53202                       # Number of branches that were predicted taken incorrectly (Count)
system.cpu0.iew.predictedNotTakenIncorrect        58533                       # Number of branches that were predicted not taken incorrectly (Count)
system.cpu0.iew.branchMispredicts              111735                       # Number of branch mispredicts detected at execute (Count)
system.cpu0.iew.instsToCommit                27855442                       # Cumulative count of insts sent to commit (Count)
system.cpu0.iew.writebackCount               27816354                       # Cumulative count of insts written-back (Count)
system.cpu0.iew.producerInst                 21574025                       # Number of instructions producing a value (Count)
system.cpu0.iew.consumerInst                 35495870                       # Number of instructions consuming a value (Count)
system.cpu0.iew.wbRate                       2.011103                       # Insts written-back per cycle ((Count/Cycle))
system.cpu0.iew.wbFanout                     0.607790                       # Average fanout of values written-back ((Count/Count))
system.cpu0.interrupts.clk_domain.clock          8000                       # Clock period in ticks (Tick)
system.cpu0.itb_walker_cache.blockedCycles::no_mshrs            0                       # number of cycles access was blocked (Cycle)
system.cpu0.itb_walker_cache.blockedCycles::no_targets            0                       # number of cycles access was blocked (Cycle)
system.cpu0.itb_walker_cache.blockedCauses::no_mshrs            0                       # number of times access was blocked (Count)
system.cpu0.itb_walker_cache.blockedCauses::no_targets            0                       # number of times access was blocked (Count)
system.cpu0.itb_walker_cache.avgBlocked::no_mshrs          nan                       # average number of cycles each access was blocked ((Cycle/Count))
system.cpu0.itb_walker_cache.avgBlocked::no_targets          nan                       # average number of cycles each access was blocked ((Cycle/Count))
system.cpu0.itb_walker_cache.replacements            0                       # number of replacements (Count)
system.cpu0.itb_walker_cache.power_state.pwrStateResidencyTicks::UNDEFINED   6915696000                       # Cumulative time (in ticks) in various power states (Tick)
system.cpu0.itb_walker_cache.tags.tagsInUse            0                       # Average ticks per tags in use ((Tick/Count))
system.cpu0.itb_walker_cache.tags.totalRefs            0                       # Total number of references to valid blocks. (Count)
system.cpu0.itb_walker_cache.tags.sampledRefs            0                       # Sample count of references to valid blocks. (Count)
system.cpu0.itb_walker_cache.tags.avgRefs          nan                       # Average number of references to valid blocks. ((Count/Count))
system.cpu0.itb_walker_cache.tags.warmupTick            0                       # The tick when the warmup percentage was hit. (Tick)
system.cpu0.itb_walker_cache.tags.tagAccesses            0                       # Number of tag accesses (Count)
system.cpu0.itb_walker_cache.tags.dataAccesses            0                       # Number of data accesses (Count)
system.cpu0.itb_walker_cache.tags.power_state.pwrStateResidencyTicks::UNDEFINED   6915696000                       # Cumulative time (in ticks) in various power states (Tick)
system.cpu0.lsq0.forwLoads                     102228                       # Number of loads that had data forwarded from stores (Count)
system.cpu0.lsq0.squashedLoads                 616464                       # Number of loads squashed (Count)
system.cpu0.lsq0.ignoredResponses                 172                       # Number of memory responses ignored because the instruction is squashed (Count)
system.cpu0.lsq0.memOrderViolation                261                       # Number of memory ordering violations (Count)
system.cpu0.lsq0.squashedStores                196367                       # Number of stores squashed (Count)
system.cpu0.lsq0.rescheduledLoads                  13                       # Number of loads that were rescheduled (Count)
system.cpu0.lsq0.blockedByCache                  2663                       # Number of times an access to memory failed due to the cache being blocked (Count)
system.cpu0.lsq0.loadToUse::samples           2425840                       # Distribution of cycle latency between the first time a load is issued and its completion (Unspecified)
system.cpu0.lsq0.loadToUse::mean            13.473084                       # Distribution of cycle latency between the first time a load is issued and its completion (Unspecified)
system.cpu0.lsq0.loadToUse::stdev           33.740395                       # Distribution of cycle latency between the first time a load is issued and its completion (Unspecified)
system.cpu0.lsq0.loadToUse::0-9               2133699     87.96%     87.96% # Distribution of cycle latency between the first time a load is issued and its completion (Unspecified)
system.cpu0.lsq0.loadToUse::10-19               11565      0.48%     88.43% # Distribution of cycle latency between the first time a load is issued and its completion (Unspecified)
system.cpu0.lsq0.loadToUse::20-29               36943      1.52%     89.96% # Distribution of cycle latency between the first time a load is issued and its completion (Unspecified)
system.cpu0.lsq0.loadToUse::30-39                4008      0.17%     90.12% # Distribution of cycle latency between the first time a load is issued and its completion (Unspecified)
[...]
system.mem_ctrls.bytesInstRead::cpu1.inst       189440                       # Number of instructions bytes read from this memory (Byte)
system.mem_ctrls.bytesInstRead::total          378176                       # Number of instructions bytes read from this memory (Byte)
system.mem_ctrls.bytesWritten::writebacks      1914752                       # Number of bytes written to this memory (Byte)
system.mem_ctrls.bytesWritten::total          1914752                       # Number of bytes written to this memory (Byte)
system.mem_ctrls.numReads::cpu0.inst             2949                       # Number of read requests responded to by this memory (Count)
system.mem_ctrls.numReads::cpu0.data            34918                       # Number of read requests responded to by this memory (Count)
system.mem_ctrls.numReads::cpu1.inst             2960                       # Number of read requests responded to by this memory (Count)
system.mem_ctrls.numReads::cpu1.data            34074                       # Number of read requests responded to by this memory (Count)
system.mem_ctrls.numReads::total                74901                       # Number of read requests responded to by this memory (Count)
system.mem_ctrls.numWrites::writebacks          29918                       # Number of write requests responded to by this memory (Count)
system.mem_ctrls.numWrites::total               29918                       # Number of write requests responded to by this memory (Count)
system.mem_ctrls.bwRead::cpu0.inst           27290962                       # Total read bandwidth from this memory ((Byte/Second))
system.mem_ctrls.bwRead::cpu0.data          323142024                       # Total read bandwidth from this memory ((Byte/Second))
system.mem_ctrls.bwRead::cpu1.inst           27392760                       # Total read bandwidth from this memory ((Byte/Second))
system.mem_ctrls.bwRead::cpu1.data          315331385                       # Total read bandwidth from this memory ((Byte/Second))
system.mem_ctrls.bwRead::total              693157131                       # Total read bandwidth from this memory ((Byte/Second))
system.mem_ctrls.bwInstRead::cpu0.inst       27290962                       # Instruction read bandwidth from this memory ((Byte/Second))
system.mem_ctrls.bwInstRead::cpu1.inst       27392760                       # Instruction read bandwidth from this memory ((Byte/Second))
system.mem_ctrls.bwInstRead::total           54683722                       # Instruction read bandwidth from this memory ((Byte/Second))
system.mem_ctrls.bwWrite::writebacks        276870470                       # Write bandwidth from this memory ((Byte/Second))
system.mem_ctrls.bwWrite::total             276870470                       # Write bandwidth from this memory ((Byte/Second))
system.mem_ctrls.bwTotal::writebacks        276870470                       # Total bandwidth to/from this memory ((Byte/Second))
system.mem_ctrls.bwTotal::cpu0.inst          27290962                       # Total bandwidth to/from this memory ((Byte/Second))
system.mem_ctrls.bwTotal::cpu0.data         323142024                       # Total bandwidth to/from this memory ((Byte/Second))
system.mem_ctrls.bwTotal::cpu1.inst          27392760                       # Total bandwidth to/from this memory ((Byte/Second))
system.mem_ctrls.bwTotal::cpu1.data         315331385                       # Total bandwidth to/from this memory ((Byte/Second))
system.mem_ctrls.bwTotal::total             970027601                       # Total bandwidth to/from this memory ((Byte/Second))
system.mem_ctrls.power_state.pwrStateResidencyTicks::UNDEFINED   6915696000                       # Cumulative time (in ticks) in various power states (Tick)
system.membus.transDist::ReadResp               38796                       # Transaction distribution (Count)
system.membus.transDist::WritebackDirty         29918                       # Transaction distribution (Count)
system.membus.transDist::CleanEvict             28389                       # Transaction distribution (Count)
system.membus.transDist::ReadExReq              36104                       # Transaction distribution (Count)
system.membus.transDist::ReadExResp             36104                       # Transaction distribution (Count)
system.membus.transDist::ReadSharedReq          38797                       # Transaction distribution (Count)
system.membus.pktCount_system.l3.mem_side_port::system.mem_ctrls.port       208108                       # Packet count per connected requestor and responder (Count)
system.membus.pktCount_system.l3.mem_side_port::total       208108                       # Packet count per connected requestor and responder (Count)
system.membus.pktCount::total                  208108                       # Packet count per connected requestor and responder (Count)
system.membus.pktSize_system.l3.mem_side_port::system.mem_ctrls.port      6708352                       # Cumulative packet size per connected requestor and responder (Byte)
system.membus.pktSize_system.l3.mem_side_port::total      6708352                       # Cumulative packet size per connected requestor and responder (Byte)
system.membus.pktSize::total                  6708352                       # Cumulative packet size per connected requestor and responder (Byte)
system.membus.snoops                                0                       # Total snoops (Count)
system.membus.snoopTraffic                          0                       # Total snoop traffic (Byte)
system.membus.snoopFanout::samples              80336                       # Request fanout histogram (Count)
system.membus.snoopFanout::mean                     0                       # Request fanout histogram (Count)
system.membus.snoopFanout::stdev                    0                       # Request fanout histogram (Count)
system.membus.snoopFanout::underflows               0      0.00%      0.00% # Request fanout histogram (Count)
system.membus.snoopFanout::0                    80336    100.00%    100.00% # Request fanout histogram (Count)
system.membus.snoopFanout::1                        0      0.00%    100.00% # Request fanout histogram (Count)
system.membus.snoopFanout::overflows                0      0.00%    100.00% # Request fanout histogram (Count)
system.membus.snoopFanout::min_value                0                       # Request fanout histogram (Count)
system.membus.snoopFanout::max_value                0                       # Request fanout histogram (Count)
system.membus.snoopFanout::total                80336                       # Request fanout histogram (Count)
system.membus.power_state.pwrStateResidencyTicks::UNDEFINED   6915696000                       # Cumulative time (in ticks) in various power states (Tick)
system.membus.reqLayer4.occupancy           278890344                       # Layer occupancy (ticks) (Tick)
system.membus.reqLayer4.utilization               0.0                       # Layer utilization (Ratio)
system.membus.respLayer1.occupancy          374500000                       # Layer occupancy (ticks) (Tick)
system.membus.respLayer1.utilization              0.1                       # Layer utilization (Ratio)
system.membus.snoop_filter.totRequests         139632                       # Total number of requests made to the snoop filter. (Count)
system.membus.snoop_filter.hitSingleRequests        59296                       # Number of requests hitting in the snoop filter with a single holder of the requested data. (Count)
system.membus.snoop_filter.hitMultiRequests            0                       # Number of requests hitting in the snoop filter with multiple (>1) holders of the requested data. (Count)
system.membus.snoop_filter.totSnoops                0                       # Total number of snoops made to the snoop filter. (Count)
system.membus.snoop_filter.hitSingleSnoops            0                       # Number of snoops hitting in the snoop filter with a single holder of the requested data. (Count)
system.membus.snoop_filter.hitMultiSnoops            0                       # Number of snoops hitting in the snoop filter with multiple (>1) holders of the requested data. (Count)
system.tol2bus.transDist::ReadResp             172103                       # Transaction distribution (Count)
system.tol2bus.transDist::WritebackDirty       235652                       # Transaction distribution (Count)
system.tol2bus.transDist::WritebackClean         6531                       # Transaction distribution (Count)
system.tol2bus.transDist::CleanEvict           162183                       # Transaction distribution (Count)
system.tol2bus.transDist::UpgradeReq            12484                       # Transaction distribution (Count)
system.tol2bus.transDist::UpgradeResp           12484                       # Transaction distribution (Count)
system.tol2bus.transDist::ReadExReq             51039                       # Transaction distribution (Count)
system.tol2bus.transDist::ReadExResp            51039                       # Transaction distribution (Count)
system.tol2bus.transDist::ReadCleanReq           7558                       # Transaction distribution (Count)
system.tol2bus.transDist::ReadSharedReq        164546                       # Transaction distribution (Count)
system.tol2bus.pktCount_system.cpu0.icache.mem_side_port::system.l2.cpu_side_port        10720                       # Packet count per connected requestor and responder (Count)
system.tol2bus.pktCount_system.cpu0.dcache.mem_side_port::system.l2.cpu_side_port       334321                       # Packet count per connected requestor and responder (Count)
system.tol2bus.pktCount_system.cpu1.icache.mem_side_port::system.l2.cpu_side_port        10920                       # Packet count per connected requestor and responder (Count)
system.tol2bus.pktCount_system.cpu1.dcache.mem_side_port::system.l2.cpu_side_port       336378                       # Packet count per connected requestor and responder (Count)
system.tol2bus.pktCount::total                 692339                       # Packet count per connected requestor and responder (Count)
system.tol2bus.pktSize_system.cpu0.icache.mem_side_port::system.l2.cpu_side_port       446336                       # Cumulative packet size per connected requestor and responder (Byte)
system.tol2bus.pktSize_system.cpu0.dcache.mem_side_port::system.l2.cpu_side_port     10362944                       # Cumulative packet size per connected requestor and responder (Byte)
system.tol2bus.pktSize_system.cpu1.icache.mem_side_port::system.l2.cpu_side_port       454912                       # Cumulative packet size per connected requestor and responder (Byte)
system.tol2bus.pktSize_system.cpu1.dcache.mem_side_port::system.l2.cpu_side_port     10425024                       # Cumulative packet size per connected requestor and responder (Byte)
system.tol2bus.pktSize::total                21689216                       # Cumulative packet size per connected requestor and responder (Byte)
system.tol2bus.snoops                          183280                       # Total snoops (Count)
system.tol2bus.snoopTraffic                   8091584                       # Total snoop traffic (Byte)
system.tol2bus.snoopFanout::samples            418901                       # Request fanout histogram (Count)
system.tol2bus.snoopFanout::mean             0.058770                       # Request fanout histogram (Count)
system.tol2bus.snoopFanout::stdev            0.235276                       # Request fanout histogram (Count)
system.tol2bus.snoopFanout::underflows              0      0.00%      0.00% # Request fanout histogram (Count)
system.tol2bus.snoopFanout::0                  394290     94.12%     94.12% # Request fanout histogram (Count)
system.tol2bus.snoopFanout::1                   24603      5.87%    100.00% # Request fanout histogram (Count)
system.tol2bus.snoopFanout::2                       8      0.00%    100.00% # Request fanout histogram (Count)
system.tol2bus.snoopFanout::3                       0      0.00%    100.00% # Request fanout histogram (Count)
system.tol2bus.snoopFanout::4                       0      0.00%    100.00% # Request fanout histogram (Count)
system.tol2bus.snoopFanout::5                       0      0.00%    100.00% # Request fanout histogram (Count)
system.tol2bus.snoopFanout::6                       0      0.00%    100.00% # Request fanout histogram (Count)
system.tol2bus.snoopFanout::7                       0      0.00%    100.00% # Request fanout histogram (Count)
system.tol2bus.snoopFanout::8                       0      0.00%    100.00% # Request fanout histogram (Count)
system.tol2bus.snoopFanout::overflows               0      0.00%    100.00% # Request fanout histogram (Count)
system.tol2bus.snoopFanout::min_value               0                       # Request fanout histogram (Count)
system.tol2bus.snoopFanout::max_value               2                       # Request fanout histogram (Count)
system.tol2bus.snoopFanout::total              418901                       # Request fanout histogram (Count)
system.tol2bus.power_state.pwrStateResidencyTicks::UNDEFINED   6915696000                       # Cumulative time (in ticks) in various power states (Tick)
system.tol2bus.reqLayer0.occupancy          344117500                       # Layer occupancy (ticks) (Tick)
system.tol2bus.reqLayer0.utilization              0.0                       # Layer utilization (Ratio)
system.tol2bus.respLayer0.occupancy           5625484                       # Layer occupancy (ticks) (Tick)
system.tol2bus.respLayer0.utilization             0.0                       # Layer utilization (Ratio)
system.tol2bus.respLayer1.occupancy         164507607                       # Layer occupancy (ticks) (Tick)
system.tol2bus.respLayer1.utilization             0.0                       # Layer utilization (Ratio)
system.tol2bus.respLayer4.occupancy           5725485                       # Layer occupancy (ticks) (Tick)
system.tol2bus.respLayer4.utilization             0.0                       # Layer utilization (Ratio)
system.tol2bus.respLayer5.occupancy         165528059                       # Layer occupancy (ticks) (Tick)
system.tol2bus.respLayer5.utilization             0.0                       # Layer utilization (Ratio)
system.tol2bus.snoop_filter.totRequests        456719                       # Total number of requests made to the snoop filter. (Count)
system.tol2bus.snoop_filter.hitSingleRequests       233574                       # Number of requests hitting in the snoop filter with a single holder of the requested data. (Count)
system.tol2bus.snoop_filter.hitMultiRequests           21                       # Number of requests hitting in the snoop filter with multiple (>1) holders of the requested data. (Count)
system.tol2bus.snoop_filter.totSnoops           24590                       # Total number of snoops made to the snoop filter. (Count)
system.tol2bus.snoop_filter.hitSingleSnoops        24582                       # Number of snoops hitting in the snoop filter with a single holder of the requested data. (Count)
system.tol2bus.snoop_filter.hitMultiSnoops            8                       # Number of snoops hitting in the snoop filter with multiple (>1) holders of the requested data. (Count)
system.tol3bus.transDist::ReadResp             122964                       # Transaction distribution (Count)
system.tol3bus.transDist::WritebackDirty       156034                       # Transaction distribution (Count)
system.tol3bus.transDist::CleanEvict            72762                       # Transaction distribution (Count)
system.tol3bus.transDist::UpgradeReq                7                       # Transaction distribution (Count)
system.tol3bus.transDist::UpgradeResp               7                       # Transaction distribution (Count)
system.tol3bus.transDist::ReadExReq             47142                       # Transaction distribution (Count)
system.tol3bus.transDist::ReadExResp            47142                       # Transaction distribution (Count)
system.tol3bus.transDist::ReadSharedReq        122965                       # Transaction distribution (Count)
system.tol3bus.pktCount_system.l2.mem_side_port::system.l3.cpu_side_port       510138                       # Packet count per connected requestor and responder (Count)
system.tol3bus.pktSize_system.l2.mem_side_port::system.l3.cpu_side_port     18958208                       # Cumulative packet size per connected requestor and responder (Byte)
system.tol3bus.snoops                           58885                       # Total snoops (Count)
system.tol3bus.snoopTraffic                   1914752                       # Total snoop traffic (Byte)
system.tol3bus.snoopFanout::samples            228999                       # Request fanout histogram (Count)
system.tol3bus.snoopFanout::mean             0.012747                       # Request fanout histogram (Count)
system.tol3bus.snoopFanout::stdev            0.112180                       # Request fanout histogram (Count)
system.tol3bus.snoopFanout::underflows              0      0.00%      0.00% # Request fanout histogram (Count)
system.tol3bus.snoopFanout::0                  226080     98.73%     98.73% # Request fanout histogram (Count)
system.tol3bus.snoopFanout::1                    2919      1.27%    100.00% # Request fanout histogram (Count)
system.tol3bus.snoopFanout::overflows               0      0.00%    100.00% # Request fanout histogram (Count)
system.tol3bus.snoopFanout::min_value               0                       # Request fanout histogram (Count)
system.tol3bus.snoopFanout::max_value               1                       # Request fanout histogram (Count)
system.tol3bus.snoopFanout::total              228999                       # Request fanout histogram (Count)
system.tol3bus.power_state.pwrStateResidencyTicks::UNDEFINED   6915696000                       # Cumulative time (in ticks) in various power states (Tick)
system.tol3bus.reqLayer0.occupancy          296128500                       # Layer occupancy (ticks) (Tick)
system.tol3bus.reqLayer0.utilization              0.0                       # Layer utilization (Ratio)
system.tol3bus.respLayer0.occupancy         255162500                       # Layer occupancy (ticks) (Tick)
system.tol3bus.respLayer0.utilization             0.0                       # Layer utilization (Ratio)
system.tol3bus.snoop_filter.totRequests        340025                       # Total number of requests made to the snoop filter. (Count)
system.tol3bus.snoop_filter.hitSingleRequests       169927                       # Number of requests hitting in the snoop filter with a single holder of the requested data. (Count)
system.tol3bus.snoop_filter.hitMultiRequests            0                       # Number of requests hitting in the snoop filter with multiple (>1) holders of the requested data. (Count)
system.tol3bus.snoop_filter.totSnoops            2919                       # Total number of snoops made to the snoop filter. (Count)
system.tol3bus.snoop_filter.hitSingleSnoops         2919                       # Number of snoops hitting in the snoop filter with a single holder of the requested data. (Count)
system.tol3bus.snoop_filter.hitMultiSnoops            0                       # Number of snoops hitting in the snoop filter with multiple (>1) holders of the requested data. (Count)
system.voltage_domain.voltage                       1                       # Voltage in Volts (Volt)
system.workload.inst.arm                            0                       # number of arm instructions executed (Count)
system.workload.inst.quiesce                        0                       # number of quiesce instructions executed (Count)

---------- End Simulation Statistics   ----------
