
---------- Begin Simulation Statistics ----------
simSeconds                                   0.002580                       # Number of seconds simulated (Second)
simTicks                                   2580466500                       # Number of ticks simulated (Tick)
finalTick                                  2580466500                       # Number of ticks from beginning of simulation (restored from checkpoints and never reset) (Tick)
simFreq                                  1000000000000                       # The number of ticks per simulated second ((Tick/Second))
hostSeconds                                     52.81                       # Real time elapsed on the host (Second)
hostTickRate                                 48864936                       # The number of ticks simulated per host second (ticks/s) ((Tick/Second))
hostMemory                                    8537168                       # Number of bytes of host memory used (Byte)
simInsts                                      4403247                       # Number of instructions simulated (Count)
simOps                                        8893406                       # Number of ops (including micro ops) simulated (Count)
hostInstRate                                    83382                       # Simulator instruction rate (inst/s) ((Count/Second))
hostOpRate                                     168409                       # Simulator op (including micro ops) rate (op/s) ((Count/Second))
system.clk_domain.clock                          1000                       # Clock period in ticks (Tick)
system.cpu.numCycles                          5160934                       # Number of cpu cycles simulated (Cycle)
system.cpu.numWorkItemsStarted                      0                       # Number of work items this cpu started (Count)
system.cpu.numWorkItemsCompleted                    0                       # Number of work items this cpu completed (Count)
system.cpu.instsAdded                        16727153                       # Number of instructions added to the IQ (excludes non-spec) (Count)
system.cpu.nonSpecInstsAdded                       68                       # Number of non-speculative instructions added to the IQ (Count)
system.cpu.instsIssued                       14681527                       # Number of instructions issued (Count)
system.cpu.squashedInstsIssued                  92557                       # Number of squashed instructions issued (Count)
system.cpu.squashedInstsExamined              7833800                       # Number of squashed instructions iterated over during squash; mainly for profiling (Count)
system.cpu.squashedOperandsExamined           8313421                       # Number of squashed operands that are examined and possibly removed from graph (Count)
system.cpu.squashedNonSpecRemoved                   4                       # Number of squashed non-spec instructions that were removed (Count)
system.cpu.numIssuedDist::samples             5090353                       # Number of insts issued each cycle (Count)
system.cpu.numIssuedDist::mean               2.884186                       # Number of insts issued each cycle (Count)
system.cpu.numIssuedDist::stdev              2.855603                       # Number of insts issued each cycle (Count)
system.cpu.numIssuedDist::underflows                0      0.00%      0.00% # Number of insts issued each cycle (Count)
system.cpu.numIssuedDist::0                   2174181     42.71%     42.71% # Number of insts issued each cycle (Count)
system.cpu.numIssuedDist::1                    148744      2.92%     45.63% # Number of insts issued each cycle (Count)
system.cpu.numIssuedDist::2                    208450      4.10%     49.73% # Number of insts issued each cycle (Count)
system.cpu.numIssuedDist::3                    303021      5.95%     55.68% # Number of insts issued each cycle (Count)
system.cpu.numIssuedDist::4                    270863      5.32%     61.00% # Number of insts issued each cycle (Count)
system.cpu.numIssuedDist::5                    606836     11.92%     72.92% # Number of insts issued each cycle (Count)
system.cpu.numIssuedDist::6                    741782     14.57%     87.50% # Number of insts issued each cycle (Count)
system.cpu.numIssuedDist::7                    453312      8.91%     96.40% # Number of insts issued each cycle (Count)
system.cpu.numIssuedDist::8                    183164      3.60%    100.00% # Number of insts issued each cycle (Count)
system.cpu.numIssuedDist::overflows                 0      0.00%    100.00% # Number of insts issued each cycle (Count)
system.cpu.numIssuedDist::min_value                 0                       # Number of insts issued each cycle (Count)
system.cpu.numIssuedDist::max_value                 8                       # Number of insts issued each cycle (Count)
system.cpu.numIssuedDist::total               5090353                       # Number of insts issued each cycle (Count)
system.cpu.statFuBusy::No_OpClass                   0      0.00%      0.00% # attempts to use FU when none available (Count)
system.cpu.statFuBusy::IntAlu                  500099     98.56%     98.56% # attempts to use FU when none available (Count)
system.cpu.statFuBusy::IntMult                      0      0.00%     98.56% # attempts to use FU when none available (Count)
system.cpu.statFuBusy::IntDiv                       0      0.00%     98.56% # attempts to use FU when none available (Count)
system.cpu.statFuBusy::FloatAdd                     0      0.00%     98.56% # attempts to use FU when none available (Count)
system.cpu.statFuBusy::FloatCmp                     0      0.00%     98.56% # attempts to use FU when none available (Count)
system.cpu.statFuBusy::FloatCvt                     0      0.00%     98.56% # attempts to use FU when none available (Count)
system.cpu.statFuBusy::FloatMult                    0      0.00%     98.56% # attempts to use FU when none available (Count)
system.cpu.statFuBusy::FloatMultAcc                 0      0.00%     98.56% # attempts to use FU when none available (Count)
system.cpu.statFuBusy::FloatDiv                     0      0.00%     98.56% # attempts to use FU when none available (Count)
system.cpu.statFuBusy::FloatMisc                    0      0.00%     98.56% # attempts to use FU when none available (Count)
system.cpu.statFuBusy::FloatSqrt                    0      0.00%     98.56% # attempts to use FU when none available (Count)
system.cpu.statFuBusy::SimdAdd                      0      0.00%     98.56% # attempts to use FU when none available (Count)
system.cpu.statFuBusy::SimdAddAcc                   0      0.00%     98.56% # attempts to use FU when none available (Count)
system.cpu.statFuBusy::SimdAlu                     25      0.00%     98.56% # attempts to use FU when none available (Count)
system.cpu.statFuBusy::SimdCmp                      0      0.00%     98.56% # attempts to use FU when none available (Count)
system.cpu.statFuBusy::SimdCvt                     22      0.00%     98.57% # attempts to use FU when none available (Count)
system.cpu.statFuBusy::SimdMisc                     3      0.00%     98.57% # attempts to use FU when none available (Count)
system.cpu.statFuBusy::SimdMult                     0      0.00%     98.57% # attempts to use FU when none available (Count)
system.cpu.statFuBusy::SimdMultAcc                  0      0.00%     98.57% # attempts to use FU when none available (Count)
system.cpu.statFuBusy::SimdShift                    3      0.00%     98.57% # attempts to use FU when none available (Count)
system.cpu.statFuBusy::SimdShiftAcc                 0      0.00%     98.57% # attempts to use FU when none available (Count)
system.cpu.statFuBusy::SimdDiv                      0      0.00%     98.57% # attempts to use FU when none available (Count)
system.cpu.statFuBusy::SimdSqrt                     0      0.00%     98.57% # attempts to use FU when none available (Count)
system.cpu.statFuBusy::SimdFloatAdd                 0      0.00%     98.57% # attempts to use FU when none available (Count)
system.cpu.statFuBusy::SimdFloatAlu                 0      0.00%     98.57% # attempts to use FU when none available (Count)
system.cpu.statFuBusy::SimdFloatCmp                 0      0.00%     98.57% # attempts to use FU when none available (Count)
system.cpu.statFuBusy::SimdFloatCvt                 0      0.00%     98.57% # attempts to use FU when none available (Count)
system.cpu.statFuBusy::SimdFloatDiv                 0      0.00%     98.57% # attempts to use FU when none available (Count)
system.cpu.statFuBusy::SimdFloatMisc                0      0.00%     98.57% # attempts to use FU when none available (Count)
system.cpu.statFuBusy::SimdFloatMult                0      0.00%     98.57% # attempts to use FU when none available (Count)
system.cpu.statFuBusy::SimdFloatMultAcc             0      0.00%     98.57% # attempts to use FU when none available (Count)
system.cpu.statFuBusy::SimdFloatSqrt                0      0.00%     98.57% # attempts to use FU when none available (Count)
system.cpu.statFuBusy::SimdReduceAdd                0      0.00%     98.57% # attempts to use FU when none available (Count)
system.cpu.statFuBusy::SimdReduceAlu                0      0.00%     98.57% # attempts to use FU when none available (Count)
system.cpu.statFuBusy::SimdReduceCmp                0      0.00%     98.57% # attempts to use FU when none available (Count)
system.cpu.statFuBusy::SimdFloatReduceAdd            0      0.00%     98.57% # attempts to use FU when none available (Count)
system.cpu.statFuBusy::SimdFloatReduceCmp            0      0.00%     98.57% # attempts to use FU when none available (Count)
system.cpu.statFuBusy::SimdAes                      0      0.00%     98.57% # attempts to use FU when none available (Count)
system.cpu.statFuBusy::SimdAesMix                   0      0.00%     98.57% # attempts to use FU when none available (Count)
system.cpu.statFuBusy::SimdSha1Hash                 0      0.00%     98.57% # attempts to use FU when none available (Count)
system.cpu.statFuBusy::SimdSha1Hash2                0      0.00%     98.57% # attempts to use FU when none available (Count)
system.cpu.statFuBusy::SimdSha256Hash               0      0.00%     98.57% # attempts to use FU when none available (Count)
system.cpu.statFuBusy::SimdSha256Hash2              0      0.00%     98.57% # attempts to use FU when none available (Count)
system.cpu.statFuBusy::SimdShaSigma2                0      0.00%     98.57% # attempts to use FU when none available (Count)
system.cpu.statFuBusy::SimdShaSigma3                0      0.00%     98.57% # attempts to use FU when none available (Count)
system.cpu.statFuBusy::SimdPredAlu                  0      0.00%     98.57% # attempts to use FU when none available (Count)
system.cpu.statFuBusy::MemRead                    661      0.13%     98.70% # attempts to use FU when none available (Count)
system.cpu.statFuBusy::MemWrite                  6509      1.28%     99.98% # attempts to use FU when none available (Count)
system.cpu.statFuBusy::FloatMemRead                49      0.01%     99.99% # attempts to use FU when none available (Count)
system.cpu.statFuBusy::FloatMemWrite               46      0.01%    100.00% # attempts to use FU when none available (Count)
system.cpu.statFuBusy::IprAccess                    0      0.00%    100.00% # attempts to use FU when none available (Count)
system.cpu.statFuBusy::InstPrefetch                 0      0.00%    100.00% # attempts to use FU when none available (Count)
system.cpu.statIssuedInstType_0::No_OpClass       113015      0.77%      0.77% # Number of instructions issued per FU type, per thread (Count)
system.cpu.statIssuedInstType_0::IntAlu      12285777     83.68%     84.45% # Number of instructions issued per FU type, per thread (Count)
system.cpu.statIssuedInstType_0::IntMult           32      0.00%     84.45% # Number of instructions issued per FU type, per thread (Count)
system.cpu.statIssuedInstType_0::IntDiv          1437      0.01%     84.46% # Number of instructions issued per FU type, per thread (Count)
system.cpu.statIssuedInstType_0::FloatAdd          620      0.00%     84.47% # Number of instructions issued per FU type, per thread (Count)
system.cpu.statIssuedInstType_0::FloatCmp            0      0.00%     84.47% # Number of instructions issued per FU type, per thread (Count)
system.cpu.statIssuedInstType_0::FloatCvt          116      0.00%     84.47% # Number of instructions issued per FU type, per thread (Count)
system.cpu.statIssuedInstType_0::FloatMult            0      0.00%     84.47% # Number of instructions issued per FU type, per thread (Count)
system.cpu.statIssuedInstType_0::FloatMultAcc            0      0.00%     84.47% # Number of instructions issued per FU type, per thread (Count)
system.cpu.statIssuedInstType_0::FloatDiv            0      0.00%     84.47% # Number of instructions issued per FU type, per thread (Count)
system.cpu.statIssuedInstType_0::FloatMisc            0      0.00%     84.47% # Number of instructions issued per FU type, per thread (Count)
system.cpu.statIssuedInstType_0::FloatSqrt            0      0.00%     84.47% # Number of instructions issued per FU type, per thread (Count)
system.cpu.statIssuedInstType_0::SimdAdd          436      0.00%     84.47% # Number of instructions issued per FU type, per thread (Count)
system.cpu.statIssuedInstType_0::SimdAddAcc            0      0.00%     84.47% # Number of instructions issued per FU type, per thread (Count)
system.cpu.statIssuedInstType_0::SimdAlu         1266      0.01%     84.48% # Number of instructions issued per FU type, per thread (Count)
system.cpu.statIssuedInstType_0::SimdCmp            0      0.00%     84.48% # Number of instructions issued per FU type, per thread (Count)
system.cpu.statIssuedInstType_0::SimdCvt         1086      0.01%     84.49% # Number of instructions issued per FU type, per thread (Count)
system.cpu.statIssuedInstType_0::SimdMisc         1057      0.01%     84.49% # Number of instructions issued per FU type, per thread (Count)
system.cpu.statIssuedInstType_0::SimdMult            0      0.00%     84.49% # Number of instructions issued per FU type, per thread (Count)
system.cpu.statIssuedInstType_0::SimdMultAcc            0      0.00%     84.49% # Number of instructions issued per FU type, per thread (Count)
system.cpu.statIssuedInstType_0::SimdShift          267      0.00%     84.49% # Number of instructions issued per FU type, per thread (Count)
system.cpu.statIssuedInstType_0::SimdShiftAcc            0      0.00%     84.49% # Number of instructions issued per FU type, per thread (Count)
system.cpu.statIssuedInstType_0::SimdDiv            0      0.00%     84.49% # Number of instructions issued per FU type, per thread (Count)
system.cpu.statIssuedInstType_0::SimdSqrt            0      0.00%     84.49% # Number of instructions issued per FU type, per thread (Count)
system.cpu.statIssuedInstType_0::SimdFloatAdd            0      0.00%     84.49% # Number of instructions issued per FU type, per thread (Count)
system.cpu.statIssuedInstType_0::SimdFloatAlu            0      0.00%     84.49% # Number of instructions issued per FU type, per thread (Count)
system.cpu.statIssuedInstType_0::SimdFloatCmp            0      0.00%     84.49% # Number of instructions issued per FU type, per thread (Count)
system.cpu.statIssuedInstType_0::SimdFloatCvt            0      0.00%     84.49% # Number of instructions issued per FU type, per thread (Count)
system.cpu.statIssuedInstType_0::SimdFloatDiv            0      0.00%     84.49% # Number of instructions issued per FU type, per thread (Count)
system.cpu.statIssuedInstType_0::SimdFloatMisc            0      0.00%     84.49% # Number of instructions issued per FU type, per thread (Count)
system.cpu.statIssuedInstType_0::SimdFloatMult            0      0.00%     84.49% # Number of instructions issued per FU type, per thread (Count)
system.cpu.statIssuedInstType_0::SimdFloatMultAcc            0      0.00%     84.49% # Number of instructions issued per FU type, per thread (Count)
system.cpu.statIssuedInstType_0::SimdFloatSqrt            0      0.00%     84.49% # Number of instructions issued per FU type, per thread (Count)
system.cpu.statIssuedInstType_0::SimdReduceAdd            0      0.00%     84.49% # Number of instructions issued per FU type, per thread (Count)
system.cpu.statIssuedInstType_0::SimdReduceAlu            0      0.00%     84.49% # Number of instructions issued per FU type, per thread (Count)
system.cpu.statIssuedInstType_0::SimdReduceCmp            0      0.00%     84.49% # Number of instructions issued per FU type, per thread (Count)
system.cpu.statIssuedInstType_0::SimdFloatReduceAdd            0      0.00%     84.49% # Number of instructions issued per FU type, per thread (Count)
system.cpu.statIssuedInstType_0::SimdFloatReduceCmp            0      0.00%     84.49% # Number of instructions issued per FU type, per thread (Count)
system.cpu.statIssuedInstType_0::SimdAes            0      0.00%     84.49% # Number of instructions issued per FU type, per thread (Count)
system.cpu.statIssuedInstType_0::SimdAesMix            0      0.00%     84.49% # Number of instructions issued per FU type, per thread (Count)
system.cpu.statIssuedInstType_0::SimdSha1Hash            0      0.00%     84.49% # Number of instructions issued per FU type, per thread (Count)
system.cpu.statIssuedInstType_0::SimdSha1Hash2            0      0.00%     84.49% # Number of instructions issued per FU type, per thread (Count)
system.cpu.statIssuedInstType_0::SimdSha256Hash            0      0.00%     84.49% # Number of instructions issued per FU type, per thread (Count)
system.cpu.statIssuedInstType_0::SimdSha256Hash2            0      0.00%     84.49% # Number of instructions issued per FU type, per thread (Count)
system.cpu.statIssuedInstType_0::SimdShaSigma2            0      0.00%     84.49% # Number of instructions issued per FU type, per thread (Count)
system.cpu.statIssuedInstType_0::SimdShaSigma3            0      0.00%     84.49% # Number of instructions issued per FU type, per thread (Count)
system.cpu.statIssuedInstType_0::SimdPredAlu            0      0.00%     84.49% # Number of instructions issued per FU type, per thread (Count)
system.cpu.statIssuedInstType_0::MemRead      1420388      9.67%     94.17% # Number of instructions issued per FU type, per thread (Count)
system.cpu.statIssuedInstType_0::MemWrite       852054      5.80%     99.97% # Number of instructions issued per FU type, per thread (Count)
system.cpu.statIssuedInstType_0::FloatMemRead         2110      0.01%     99.99% # Number of instructions issued per FU type, per thread (Count)
system.cpu.statIssuedInstType_0::FloatMemWrite         1866      0.01%    100.00% # Number of instructions issued per FU type, per thread (Count)
system.cpu.statIssuedInstType_0::IprAccess            0      0.00%    100.00% # Number of instructions issued per FU type, per thread (Count)
system.cpu.statIssuedInstType_0::InstPrefetch            0      0.00%    100.00% # Number of instructions issued per FU type, per thread (Count)
system.cpu.statIssuedInstType_0::total       14681527                       # Number of instructions issued per FU type, per thread (Count)
system.cpu.issueRate                         2.844742                       # Inst issue rate ((Count/Cycle))
system.cpu.fuBusy                              507417                       # FU busy when requested (Count)
system.cpu.fuBusyRate                        0.034562                       # FU busy rate (busy events/executed inst) ((Count/Count))
system.cpu.intInstQueueReads                 35034827                       # Number of integer instruction queue reads (Count)
system.cpu.intInstQueueWrites                24544599                       # Number of integer instruction queue writes (Count)
system.cpu.intInstQueueWakeupAccesses        13750212                       # Number of integer instruction queue wakeup accesses (Count)
system.cpu.fpInstQueueReads                     18554                       # Number of floating instruction queue reads (Count)
system.cpu.fpInstQueueWrites                    16506                       # Number of floating instruction queue writes (Count)
system.cpu.fpInstQueueWakeupAccesses             8411                       # Number of floating instruction queue wakeup accesses (Count)
system.cpu.vecInstQueueReads                        0                       # Number of vector instruction queue reads (Count)
system.cpu.vecInstQueueWrites                       0                       # Number of vector instruction queue writes (Count)
system.cpu.vecInstQueueWakeupAccesses               0                       # Number of vector instruction queue wakeup accesses (Count)
system.cpu.intAluAccesses                    15066615                       # Number of integer alu accesses (Count)
system.cpu.fpAluAccesses                         9314                       # Number of floating point alu accesses (Count)
system.cpu.vecAluAccesses                           0                       # Number of vector alu accesses (Count)
system.cpu.numInsts                          13955646                       # Number of executed instructions (Count)
system.cpu.numLoadInsts                       1319663                       # Number of load instructions executed (Count)
system.cpu.numSquashedInsts                    725881                       # Number of squashed instructions skipped in execute (Count)
system.cpu.numSwp                                   0                       # Number of swp insts executed (Count)
system.cpu.numNop                                   0                       # Number of nop insts executed (Count)
system.cpu.numRefs                            2110780                       # Number of memory reference insts executed (Count)
system.cpu.numBranches                        1500870                       # Number of branches executed (Count)
system.cpu.numStoreInsts                       791117                       # Number of stores executed (Count)
system.cpu.numRate                           2.704093                       # Inst execution rate ((Count/Cycle))
system.cpu.timesIdled                             996                       # Number of times that the entire CPU went into an idle state and unscheduled itself (Count)
system.cpu.idleCycles                           70581                       # Total number of cycles that the CPU has spent unscheduled due to idling (Cycle)
system.cpu.committedInsts                     4403247                       # Number of Instructions Simulated (Count)
system.cpu.committedOps                       8893406                       # Number of Ops (including micro ops) Simulated (Count)
system.cpu.cpi                               1.172075                       # CPI: Cycles Per Instruction ((Cycle/Count))
system.cpu.totalCpi                          1.172075                       # CPI: Total CPI of All Threads ((Cycle/Count))
system.cpu.ipc                               0.853188                       # IPC: Instructions Per Cycle ((Count/Cycle))
system.cpu.totalIpc                          0.853188                       # IPC: Total IPC of All Threads ((Count/Cycle))
system.cpu.intRegfileReads                   18199624                       # Number of integer regfile reads (Count)
system.cpu.intRegfileWrites                  11446157                       # Number of integer regfile writes (Count)
system.cpu.fpRegfileReads                       11367                       # Number of floating regfile reads (Count)
system.cpu.fpRegfileWrites                       6067                       # Number of floating regfile writes (Count)
system.cpu.ccRegfileReads                     6833120                       # number of cc regfile reads (Count)
system.cpu.ccRegfileWrites                    5728672                       # number of cc regfile writes (Count)
system.cpu.miscRegfileReads                   5573338                       # number of misc regfile reads (Count)
system.cpu.miscRegfileWrites                       63                       # number of misc regfile writes (Count)
system.cpu.MemDepUnit__0.insertedLoads        1663359                       # Number of loads inserted to the mem dependence unit. (Count)
system.cpu.MemDepUnit__0.insertedStores       1032507                       # Number of stores inserted to the mem dependence unit. (Count)
system.cpu.MemDepUnit__0.conflictingLoads        15245                       # Number of conflicting loads. (Count)
system.cpu.MemDepUnit__0.conflictingStores        18193                       # Number of conflicting stores. (Count)
system.cpu.MemDepUnit__1.insertedLoads              0                       # Number of loads inserted to the mem dependence unit. (Count)
system.cpu.MemDepUnit__1.insertedStores             0                       # Number of stores inserted to the mem dependence unit. (Count)
system.cpu.MemDepUnit__1.conflictingLoads            0                       # Number of conflicting loads. (Count)
system.cpu.MemDepUnit__1.conflictingStores            0                       # Number of conflicting stores. (Count)
system.cpu.MemDepUnit__2.insertedLoads              0                       # Number of loads inserted to the mem dependence unit. (Count)
system.cpu.MemDepUnit__2.insertedStores             0                       # Number of stores inserted to the mem dependence unit. (Count)
system.cpu.MemDepUnit__2.conflictingLoads            0                       # Number of conflicting loads. (Count)
system.cpu.MemDepUnit__2.conflictingStores            0                       # Number of conflicting stores. (Count)
system.cpu.MemDepUnit__3.insertedLoads              0                       # Number of loads inserted to the mem dependence unit. (Count)
system.cpu.MemDepUnit__3.insertedStores             0                       # Number of stores inserted to the mem dependence unit. (Count)
system.cpu.MemDepUnit__3.conflictingLoads            0                       # Number of conflicting loads. (Count)
system.cpu.MemDepUnit__3.conflictingStores            0                       # Number of conflicting stores. (Count)
system.cpu.branchPred.lookups                 2617308                       # Number of BP lookups (Count)
system.cpu.branchPred.condPredicted           2360266                       # Number of conditional branches predicted (Count)
system.cpu.branchPred.condIncorrect            227354                       # Number of conditional branches incorrect (Count)
system.cpu.branchPred.BTBLookups              1849583                       # Number of BTB lookups (Count)
system.cpu.branchPred.BTBHits                 1847340                       # Number of BTB hits (Count)
system.cpu.branchPred.BTBHitRatio            0.998787                       # BTB Hit Ratio (Ratio)
system.cpu.branchPred.RASUsed                   84139                       # Number of times the RAS was used to get a target. (Count)
system.cpu.branchPred.RASIncorrect                  5                       # Number of incorrect RAS predictions. (Count)
system.cpu.branchPred.indirectLookups            1590                       # Number of indirect predictor lookups. (Count)
system.cpu.branchPred.indirectHits                172                       # Number of indirect target hits. (Count)
system.cpu.branchPred.indirectMisses             1418                       # Number of indirect misses. (Count)
system.cpu.branchPred.indirectMispredicted          311                       # Number of mispredicted indirect branches. (Count)
system.cpu.commit.commitSquashedInsts         7832717                       # The number of squashed insts skipped by commit (Count)
system.cpu.commit.commitNonSpecStalls              63                       # The number of times commit has been forced to stall to communicate backwards (Count)
system.cpu.commit.branchMispredicts            226968                       # The number of times a branch was mispredicted (Count)
system.cpu.commit.numCommittedDist::samples      3999131                       # Number of insts commited each cycle (Count)
system.cpu.commit.numCommittedDist::mean     2.223835                       # Number of insts commited each cycle (Count)
system.cpu.commit.numCommittedDist::stdev     2.833576                       # Number of insts commited each cycle (Count)
system.cpu.commit.numCommittedDist::underflows            0      0.00%      0.00% # Number of insts commited each cycle (Count)
system.cpu.commit.numCommittedDist::0         1860512     46.52%     46.52% # Number of insts commited each cycle (Count)
system.cpu.commit.numCommittedDist::1          417188     10.43%     56.95% # Number of insts commited each cycle (Count)
system.cpu.commit.numCommittedDist::2          269456      6.74%     63.69% # Number of insts commited each cycle (Count)
system.cpu.commit.numCommittedDist::3          526702     13.17%     76.86% # Number of insts commited each cycle (Count)
system.cpu.commit.numCommittedDist::4          113813      2.85%     79.71% # Number of insts commited each cycle (Count)
system.cpu.commit.numCommittedDist::5           79349      1.98%     81.69% # Number of insts commited each cycle (Count)
system.cpu.commit.numCommittedDist::6          133596      3.34%     85.03% # Number of insts commited each cycle (Count)
system.cpu.commit.numCommittedDist::7           84493      2.11%     87.15% # Number of insts commited each cycle (Count)
system.cpu.commit.numCommittedDist::8          514022     12.85%    100.00% # Number of insts commited each cycle (Count)
system.cpu.commit.numCommittedDist::overflows            0      0.00%    100.00% # Number of insts commited each cycle (Count)
system.cpu.commit.numCommittedDist::min_value            0                       # Number of insts commited each cycle (Count)
system.cpu.commit.numCommittedDist::max_value            8                       # Number of insts commited each cycle (Count)
system.cpu.commit.numCommittedDist::total      3999131                       # Number of insts commited each cycle (Count)
system.cpu.commit.instsCommitted              4403247                       # Number of instructions committed (Count)
system.cpu.commit.opsCommitted                8893406                       # Number of ops (including micro ops) committed (Count)
system.cpu.commit.memRefs                     1429662                       # Number of memory references committed (Count)
system.cpu.commit.loads                        918770                       # Number of loads committed (Count)
system.cpu.commit.amos                              0                       # Number of atomic instructions committed (Count)
system.cpu.commit.membars                           0                       # Number of memory barriers committed (Count)
system.cpu.commit.branches                    1087048                       # Number of branches committed (Count)
system.cpu.commit.vectorInstructions                0                       # Number of committed Vector instructions. (Count)
system.cpu.commit.floating                       6178                       # Number of committed floating point instructions. (Count)
system.cpu.commit.integer                     8824401                       # Number of committed integer instructions. (Count)
system.cpu.commit.functionCalls                 36307                       # Number of function calls committed. (Count)
system.cpu.commit.committedInstType_0::No_OpClass        65386      0.74%      0.74% # Class of committed instruction (Count)
system.cpu.commit.committedInstType_0::IntAlu      7393738     83.14%     83.87% # Class of committed instruction (Count)
system.cpu.commit.committedInstType_0::IntMult           25      0.00%     83.87% # Class of committed instruction (Count)
system.cpu.commit.committedInstType_0::IntDiv         1315      0.01%     83.89% # Class of committed instruction (Count)
system.cpu.commit.committedInstType_0::FloatAdd          422      0.00%     83.89% # Class of committed instruction (Count)
system.cpu.commit.committedInstType_0::FloatCmp            0      0.00%     83.89% # Class of committed instruction (Count)
system.cpu.commit.committedInstType_0::FloatCvt          112      0.00%     83.89% # Class of committed instruction (Count)
system.cpu.commit.committedInstType_0::FloatMult            0      0.00%     83.89% # Class of committed instruction (Count)
system.cpu.commit.committedInstType_0::FloatMultAcc            0      0.00%     83.89% # Class of committed instruction (Count)
system.cpu.commit.committedInstType_0::FloatDiv            0      0.00%     83.89% # Class of committed instruction (Count)
system.cpu.commit.committedInstType_0::FloatMisc            0      0.00%     83.89% # Class of committed instruction (Count)
system.cpu.commit.committedInstType_0::FloatSqrt            0      0.00%     83.89% # Class of committed instruction (Count)
system.cpu.commit.committedInstType_0::SimdAdd          328      0.00%     83.90% # Class of committed instruction (Count)
system.cpu.commit.committedInstType_0::SimdAddAcc            0      0.00%     83.90% # Class of committed instruction (Count)
system.cpu.commit.committedInstType_0::SimdAlu          692      0.01%     83.91% # Class of committed instruction (Count)
system.cpu.commit.committedInstType_0::SimdCmp            0      0.00%     83.91% # Class of committed instruction (Count)
system.cpu.commit.committedInstType_0::SimdCvt          746      0.01%     83.91% # Class of committed instruction (Count)
system.cpu.commit.committedInstType_0::SimdMisc          895      0.01%     83.92% # Class of committed instruction (Count)
system.cpu.commit.committedInstType_0::SimdMult            0      0.00%     83.92% # Class of committed instruction (Count)
system.cpu.commit.committedInstType_0::SimdMultAcc            0      0.00%     83.92% # Class of committed instruction (Count)
system.cpu.commit.committedInstType_0::SimdShift           85      0.00%     83.92% # Class of committed instruction (Count)
system.cpu.commit.committedInstType_0::SimdShiftAcc            0      0.00%     83.92% # Class of committed instruction (Count)
system.cpu.commit.committedInstType_0::SimdDiv            0      0.00%     83.92% # Class of committed instruction (Count)
system.cpu.commit.committedInstType_0::SimdSqrt            0      0.00%     83.92% # Class of committed instruction (Count)
system.cpu.commit.committedInstType_0::SimdFloatAdd            0      0.00%     83.92% # Class of committed instruction (Count)
system.cpu.commit.committedInstType_0::SimdFloatAlu            0      0.00%     83.92% # Class of committed instruction (Count)
system.cpu.commit.committedInstType_0::SimdFloatCmp            0      0.00%     83.92% # Class of committed instruction (Count)
system.cpu.commit.committedInstType_0::SimdFloatCvt            0      0.00%     83.92% # Class of committed instruction (Count)
system.cpu.commit.committedInstType_0::SimdFloatDiv            0      0.00%     83.92% # Class of committed instruction (Count)
system.cpu.commit.committedInstType_0::SimdFloatMisc            0      0.00%     83.92% # Class of committed instruction (Count)
system.cpu.commit.committedInstType_0::SimdFloatMult            0      0.00%     83.92% # Class of committed instruction (Count)
system.cpu.commit.committedInstType_0::SimdFloatMultAcc            0      0.00%     83.92% # Class of committed instruction (Count)
system.cpu.commit.committedInstType_0::SimdFloatSqrt            0      0.00%     83.92% # Class of committed instruction (Count)
system.cpu.commit.committedInstType_0::SimdReduceAdd            0      0.00%     83.92% # Class of committed instruction (Count)
system.cpu.commit.committedInstType_0::SimdReduceAlu            0      0.00%     83.92% # Class of committed instruction (Count)
system.cpu.commit.committedInstType_0::SimdReduceCmp            0      0.00%     83.92% # Class of committed instruction (Count)
system.cpu.commit.committedInstType_0::SimdFloatReduceAdd            0      0.00%     83.92% # Class of committed instruction (Count)
system.cpu.commit.committedInstType_0::SimdFloatReduceCmp            0      0.00%     83.92% # Class of committed instruction (Count)
system.cpu.commit.committedInstType_0::SimdAes            0      0.00%     83.92% # Class of committed instruction (Count)
system.cpu.commit.committedInstType_0::SimdAesMix            0      0.00%     83.92% # Class of committed instruction (Count)
system.cpu.commit.committedInstType_0::SimdSha1Hash            0      0.00%     83.92% # Class of committed instruction (Count)
system.cpu.commit.committedInstType_0::SimdSha1Hash2            0      0.00%     83.92% # Class of committed instruction (Count)
system.cpu.commit.committedInstType_0::SimdSha256Hash            0      0.00%     83.92% # Class of committed instruction (Count)
system.cpu.commit.committedInstType_0::SimdSha256Hash2            0      0.00%     83.92% # Class of committed instruction (Count)
system.cpu.commit.committedInstType_0::SimdShaSigma2            0      0.00%     83.92% # Class of committed instruction (Count)
system.cpu.commit.committedInstType_0::SimdShaSigma3            0      0.00%     83.92% # Class of committed instruction (Count)
system.cpu.commit.committedInstType_0::SimdPredAlu            0      0.00%     83.92% # Class of committed instruction (Count)
system.cpu.commit.committedInstType_0::MemRead       917740     10.32%     94.24% # Class of committed instruction (Count)
system.cpu.commit.committedInstType_0::MemWrite       509327      5.73%     99.97% # Class of committed instruction (Count)
system.cpu.commit.committedInstType_0::FloatMemRead         1030      0.01%     99.98% # Class of committed instruction (Count)
system.cpu.commit.committedInstType_0::FloatMemWrite         1565      0.02%    100.00% # Class of committed instruction (Count)
system.cpu.commit.committedInstType_0::IprAccess            0      0.00%    100.00% # Class of committed instruction (Count)
system.cpu.commit.committedInstType_0::InstPrefetch            0      0.00%    100.00% # Class of committed instruction (Count)
system.cpu.commit.committedInstType_0::total      8893406                       # Class of committed instruction (Count)
system.cpu.commit.commitEligibleSamples        514022                       # number cycles where commit BW limit reached (Cycle)
system.cpu.dcache.demandHits::cpu.data        1799144                       # number of demand (read+write) hits (Count)
system.cpu.dcache.demandHits::total           1799144                       # number of demand (read+write) hits (Count)
system.cpu.dcache.overallHits::cpu.data       1799144                       # number of overall hits (Count)
system.cpu.dcache.overallHits::total          1799144                       # number of overall hits (Count)
system.cpu.dcache.demandMisses::cpu.data        18680                       # number of demand (read+write) misses (Count)
system.cpu.dcache.demandMisses::total           18680                       # number of demand (read+write) misses (Count)
system.cpu.dcache.overallMisses::cpu.data        18680                       # number of overall misses (Count)
system.cpu.dcache.overallMisses::total          18680                       # number of overall misses (Count)
system.cpu.dcache.demandMissLatency::cpu.data    702474496                       # number of demand (read+write) miss ticks (Tick)
system.cpu.dcache.demandMissLatency::total    702474496                       # number of demand (read+write) miss ticks (Tick)
system.cpu.dcache.overallMissLatency::cpu.data    702474496                       # number of overall miss ticks (Tick)
system.cpu.dcache.overallMissLatency::total    702474496                       # number of overall miss ticks (Tick)
system.cpu.dcache.demandAccesses::cpu.data      1817824                       # number of demand (read+write) accesses (Count)
system.cpu.dcache.demandAccesses::total       1817824                       # number of demand (read+write) accesses (Count)
system.cpu.dcache.overallAccesses::cpu.data      1817824                       # number of overall (read+write) accesses (Count)
system.cpu.dcache.overallAccesses::total      1817824                       # number of overall (read+write) accesses (Count)
system.cpu.dcache.demandMissRate::cpu.data     0.010276                       # miss rate for demand accesses (Ratio)
system.cpu.dcache.demandMissRate::total      0.010276                       # miss rate for demand accesses (Ratio)
system.cpu.dcache.overallMissRate::cpu.data     0.010276                       # miss rate for overall accesses (Ratio)
system.cpu.dcache.overallMissRate::total     0.010276                       # miss rate for overall accesses (Ratio)
system.cpu.dcache.demandAvgMissLatency::cpu.data 37605.701071                       # average overall miss latency ((Cycle/Count))
system.cpu.dcache.demandAvgMissLatency::total 37605.701071                       # average overall miss latency ((Cycle/Count))
system.cpu.dcache.overallAvgMissLatency::cpu.data 37605.701071                       # average overall miss latency ((Cycle/Count))
system.cpu.dcache.overallAvgMissLatency::total 37605.701071                       # average overall miss latency ((Cycle/Count))
system.cpu.dcache.blockedCycles::no_mshrs        15532                       # number of cycles access was blocked (Cycle)
system.cpu.dcache.blockedCycles::no_targets            0                       # number of cycles access was blocked (Cycle)
system.cpu.dcache.blockedCauses::no_mshrs          582                       # number of times access was blocked (Count)
system.cpu.dcache.blockedCauses::no_targets            0                       # number of times access was blocked (Count)
system.cpu.dcache.avgBlocked::no_mshrs      26.687285                       # average number of cycles each access was blocked ((Cycle/Count))
system.cpu.dcache.avgBlocked::no_targets          nan                       # average number of cycles each access was blocked ((Cycle/Count))
system.cpu.dcache.writebacks::writebacks         2944                       # number of writebacks (Count)
system.cpu.dcache.writebacks::total              2944                       # number of writebacks (Count)
system.cpu.dcache.demandMshrHits::cpu.data        12473                       # number of demand (read+write) MSHR hits (Count)
system.cpu.dcache.demandMshrHits::total         12473                       # number of demand (read+write) MSHR hits (Count)
system.cpu.dcache.overallMshrHits::cpu.data        12473                       # number of overall MSHR hits (Count)
system.cpu.dcache.overallMshrHits::total        12473                       # number of overall MSHR hits (Count)
system.cpu.dcache.demandMshrMisses::cpu.data         6207                       # number of demand (read+write) MSHR misses (Count)
system.cpu.dcache.demandMshrMisses::total         6207                       # number of demand (read+write) MSHR misses (Count)
system.cpu.dcache.overallMshrMisses::cpu.data         6207                       # number of overall MSHR misses (Count)
system.cpu.dcache.overallMshrMisses::total         6207                       # number of overall MSHR misses (Count)
system.cpu.dcache.demandMshrMissLatency::cpu.data    210728496                       # number of demand (read+write) MSHR miss ticks (Tick)
system.cpu.dcache.demandMshrMissLatency::total    210728496                       # number of demand (read+write) MSHR miss ticks (Tick)
system.cpu.dcache.overallMshrMissLatency::cpu.data    210728496                       # number of overall MSHR miss ticks (Tick)
system.cpu.dcache.overallMshrMissLatency::total    210728496                       # number of overall MSHR miss ticks (Tick)
system.cpu.dcache.demandMshrMissRate::cpu.data     0.003415                       # mshr miss ratio for demand accesses (Ratio)
system.cpu.dcache.demandMshrMissRate::total     0.003415                       # mshr miss ratio for demand accesses (Ratio)
system.cpu.dcache.overallMshrMissRate::cpu.data     0.003415                       # mshr miss ratio for overall accesses (Ratio)
system.cpu.dcache.overallMshrMissRate::total     0.003415                       # mshr miss ratio for overall accesses (Ratio)
system.cpu.dcache.demandAvgMshrMissLatency::cpu.data 33950.136298                       # average overall mshr miss latency ((Cycle/Count))
system.cpu.dcache.demandAvgMshrMissLatency::total 33950.136298                       # average overall mshr miss latency ((Cycle/Count))
system.cpu.dcache.overallAvgMshrMissLatency::cpu.data 33950.136298                       # average overall mshr miss latency ((Cycle/Count))
system.cpu.dcache.overallAvgMshrMissLatency::total 33950.136298                       # average overall mshr miss latency ((Cycle/Count))
system.cpu.dcache.replacements                   6143                       # number of replacements (Count)
system.cpu.dcache.ReadReq.hits::cpu.data      1289347                       # number of ReadReq hits (Count)
system.cpu.dcache.ReadReq.hits::total         1289347                       # number of ReadReq hits (Count)
system.cpu.dcache.ReadReq.misses::cpu.data        17585                       # number of ReadReq misses (Count)
system.cpu.dcache.ReadReq.misses::total         17585                       # number of ReadReq misses (Count)
system.cpu.dcache.ReadReq.missLatency::cpu.data    658002000                       # number of ReadReq miss ticks (Tick)
system.cpu.dcache.ReadReq.missLatency::total    658002000                       # number of ReadReq miss ticks (Tick)
system.cpu.dcache.ReadReq.accesses::cpu.data      1306932                       # number of ReadReq accesses(hits+misses) (Count)
system.cpu.dcache.ReadReq.accesses::total      1306932                       # number of ReadReq accesses(hits+misses) (Count)
system.cpu.dcache.ReadReq.missRate::cpu.data     0.013455                       # miss rate for ReadReq accesses (Ratio)
system.cpu.dcache.ReadReq.missRate::total     0.013455                       # miss rate for ReadReq accesses (Ratio)
system.cpu.dcache.ReadReq.avgMissLatency::cpu.data 37418.367927                       # average ReadReq miss latency ((Tick/Count))
system.cpu.dcache.ReadReq.avgMissLatency::total 37418.367927                       # average ReadReq miss latency ((Tick/Count))
system.cpu.dcache.ReadReq.mshrHits::cpu.data        12459                       # number of ReadReq MSHR hits (Count)
system.cpu.dcache.ReadReq.mshrHits::total        12459                       # number of ReadReq MSHR hits (Count)
system.cpu.dcache.ReadReq.mshrMisses::cpu.data         5126                       # number of ReadReq MSHR misses (Count)
system.cpu.dcache.ReadReq.mshrMisses::total         5126                       # number of ReadReq MSHR misses (Count)
system.cpu.dcache.ReadReq.mshrMissLatency::cpu.data    167778000                       # number of ReadReq MSHR miss ticks (Tick)
system.cpu.dcache.ReadReq.mshrMissLatency::total    167778000                       # number of ReadReq MSHR miss ticks (Tick)
system.cpu.dcache.ReadReq.mshrMissRate::cpu.data     0.003922                       # mshr miss rate for ReadReq accesses (Ratio)
system.cpu.dcache.ReadReq.mshrMissRate::total     0.003922                       # mshr miss rate for ReadReq accesses (Ratio)
system.cpu.dcache.ReadReq.avgMshrMissLatency::cpu.data 32730.784237                       # average ReadReq mshr miss latency ((Tick/Count))
system.cpu.dcache.ReadReq.avgMshrMissLatency::total 32730.784237                       # average ReadReq mshr miss latency ((Tick/Count))
system.cpu.dcache.WriteReq.hits::cpu.data       509797                       # number of WriteReq hits (Count)
system.cpu.dcache.WriteReq.hits::total         509797                       # number of WriteReq hits (Count)
system.cpu.dcache.WriteReq.misses::cpu.data         1095                       # number of WriteReq misses (Count)
system.cpu.dcache.WriteReq.misses::total         1095                       # number of WriteReq misses (Count)
system.cpu.dcache.WriteReq.missLatency::cpu.data     44472496                       # number of WriteReq miss ticks (Tick)
system.cpu.dcache.WriteReq.missLatency::total     44472496                       # number of WriteReq miss ticks (Tick)
system.cpu.dcache.WriteReq.accesses::cpu.data       510892                       # number of WriteReq accesses(hits+misses) (Count)
system.cpu.dcache.WriteReq.accesses::total       510892                       # number of WriteReq accesses(hits+misses) (Count)
system.cpu.dcache.WriteReq.missRate::cpu.data     0.002143                       # miss rate for WriteReq accesses (Ratio)
system.cpu.dcache.WriteReq.missRate::total     0.002143                       # miss rate for WriteReq accesses (Ratio)
system.cpu.dcache.WriteReq.avgMissLatency::cpu.data 40614.151598                       # average WriteReq miss latency ((Tick/Count))
system.cpu.dcache.WriteReq.avgMissLatency::total 40614.151598                       # average WriteReq miss latency ((Tick/Count))
system.cpu.dcache.WriteReq.mshrHits::cpu.data           14                       # number of WriteReq MSHR hits (Count)
system.cpu.dcache.WriteReq.mshrHits::total           14                       # number of WriteReq MSHR hits (Count)
system.cpu.dcache.WriteReq.mshrMisses::cpu.data         1081                       # number of WriteReq MSHR misses (Count)
system.cpu.dcache.WriteReq.mshrMisses::total         1081                       # number of WriteReq MSHR misses (Count)
system.cpu.dcache.WriteReq.mshrMissLatency::cpu.data     42950496                       # number of WriteReq MSHR miss ticks (Tick)
system.cpu.dcache.WriteReq.mshrMissLatency::total     42950496                       # number of WriteReq MSHR miss ticks (Tick)
system.cpu.dcache.WriteReq.mshrMissRate::cpu.data     0.002116                       # mshr miss rate for WriteReq accesses (Ratio)
system.cpu.dcache.WriteReq.mshrMissRate::total     0.002116                       # mshr miss rate for WriteReq accesses (Ratio)
system.cpu.dcache.WriteReq.avgMshrMissLatency::cpu.data 39732.188714                       # average WriteReq mshr miss latency ((Tick/Count))
system.cpu.dcache.WriteReq.avgMshrMissLatency::total 39732.188714                       # average WriteReq mshr miss latency ((Tick/Count))
system.cpu.dcache.power_state.pwrStateResidencyTicks::UNDEFINED   2580466500                       # Cumulative time (in ticks) in various power states (Tick)
system.cpu.dcache.tags.tagsInUse            63.918417                       # Average ticks per tags in use ((Tick/Count))
system.cpu.dcache.tags.totalRefs              1805351                       # Total number of references to valid blocks. (Count)
system.cpu.dcache.tags.sampledRefs               6207                       # Sample count of references to valid blocks. (Count)
system.cpu.dcache.tags.avgRefs             290.857258                       # Average number of references to valid blocks. ((Count/Count))
system.cpu.dcache.tags.warmupTick              132500                       # The tick when the warmup percentage was hit. (Tick)
system.cpu.dcache.tags.occupancies::cpu.data    63.918417                       # Average occupied blocks per tick, per requestor ((Count/Tick))
system.cpu.dcache.tags.avgOccs::cpu.data     0.998725                       # Average percentage of cache occupancy ((Ratio/Tick))
system.cpu.dcache.tags.avgOccs::total        0.998725                       # Average percentage of cache occupancy ((Ratio/Tick))
system.cpu.dcache.tags.occupanciesTaskId::1024           64                       # Occupied blocks per task id (Count)
system.cpu.dcache.tags.ageTaskId_1024::0           56                       # Occupied blocks per task id, per block age (Count)
system.cpu.dcache.tags.ageTaskId_1024::3            8                       # Occupied blocks per task id, per block age (Count)
system.cpu.dcache.tags.ratioOccsTaskId::1024            1                       # Ratio of occupied blocks and all blocks, per task id (Ratio)
system.cpu.dcache.tags.tagAccesses            1824031                       # Number of tag accesses (Count)
system.cpu.dcache.tags.dataAccesses           1824031                       # Number of data accesses (Count)
system.cpu.dcache.tags.power_state.pwrStateResidencyTicks::UNDEFINED   2580466500                       # Cumulative time (in ticks) in various power states (Tick)
system.cpu.decode.idleCycles                   688765                       # Number of cycles decode is idle (Cycle)
system.cpu.decode.blockedCycles               1015140                       # Number of cycles decode is blocked (Cycle)
system.cpu.decode.runCycles                   2849164                       # Number of cycles decode is running (Cycle)
system.cpu.decode.unblockCycles                310101                       # Number of cycles decode is unblocking (Cycle)
system.cpu.decode.squashCycles                 227183                       # Number of cycles decode is squashing (Cycle)
system.cpu.decode.branchResolved              1719797                       # Number of times decode resolved a branch (Count)
system.cpu.decode.branchMispred                   610                       # Number of times decode detected a branch misprediction (Count)
system.cpu.decode.decodedInsts               20501327                       # Number of instructions handled by decode (Count)
system.cpu.decode.squashedInsts                  2756                       # Number of squashed instructions handled by decode (Count)
system.cpu.dtb_walker_cache.blockedCycles::no_mshrs            0                       # number of cycles access was blocked (Cycle)
system.cpu.dtb_walker_cache.blockedCycles::no_targets            0                       # number of cycles access was blocked (Cycle)
system.cpu.dtb_walker_cache.blockedCauses::no_mshrs            0                       # number of times access was blocked (Count)
system.cpu.dtb_walker_cache.blockedCauses::no_targets            0                       # number of times access was blocked (Count)
system.cpu.dtb_walker_cache.avgBlocked::no_mshrs          nan                       # average number of cycles each access was blocked ((Cycle/Count))
system.cpu.dtb_walker_cache.avgBlocked::no_targets          nan                       # average number of cycles each access was blocked ((Cycle/Count))
system.cpu.dtb_walker_cache.replacements            0                       # number of replacements (Count)
system.cpu.dtb_walker_cache.power_state.pwrStateResidencyTicks::UNDEFINED   2580466500                       # Cumulative time (in ticks) in various power states (Tick)
system.cpu.dtb_walker_cache.tags.tagsInUse            0                       # Average ticks per tags in use ((Tick/Count))
system.cpu.dtb_walker_cache.tags.totalRefs            0                       # Total number of references to valid blocks. (Count)
system.cpu.dtb_walker_cache.tags.sampledRefs            0                       # Sample count of references to valid blocks. (Count)
system.cpu.dtb_walker_cache.tags.avgRefs          nan                       # Average number of references to valid blocks. ((Count/Count))
system.cpu.dtb_walker_cache.tags.warmupTick            0                       # The tick when the warmup percentage was hit. (Tick)
system.cpu.dtb_walker_cache.tags.tagAccesses            0                       # Number of tag accesses (Count)
system.cpu.dtb_walker_cache.tags.dataAccesses            0                       # Number of data accesses (Count)
system.cpu.dtb_walker_cache.tags.power_state.pwrStateResidencyTicks::UNDEFINED   2580466500                       # Cumulative time (in ticks) in various power states (Tick)
system.cpu.fetch.icacheStallCycles             665581                       # Number of cycles fetch is stalled on an Icache miss (Cycle)
system.cpu.fetch.insts                       10972935                       # Number of instructions fetch has processed (Count)
system.cpu.fetch.branches                     2617308                       # Number of branches that fetch encountered (Count)
system.cpu.fetch.predictedBranches            1931651                       # Number of branches that fetch has predicted taken (Count)
system.cpu.fetch.cycles                       4194840                       # Number of cycles fetch has run and was not squashing or blocked (Cycle)
system.cpu.fetch.squashCycles                  455560                       # Number of cycles fetch has spent squashing (Cycle)
system.cpu.fetch.miscStallCycles                  298                       # Number of cycles fetch has spent waiting on interrupts, or bad addresses, or out of MSHRs (Cycle)
system.cpu.fetch.pendingTrapStallCycles          1817                       # Number of stall cycles due to pending traps (Cycle)
system.cpu.fetch.pendingQuiesceStallCycles           21                       # Number of stall cycles due to pending quiesce instructions (Cycle)
system.cpu.fetch.icacheWaitRetryStallCycles           16                       # Number of stall cycles due to full MSHR (Cycle)
system.cpu.fetch.cacheLines                    589748                       # Number of cache lines fetched (Count)
system.cpu.fetch.icacheSquashes                 26095                       # Number of outstanding Icache misses that were squashed (Count)
system.cpu.fetch.nisnDist::samples            5090353                       # Number of instructions fetched each cycle (Total) (Count)
system.cpu.fetch.nisnDist::mean              4.323296                       # Number of instructions fetched each cycle (Total) (Count)
system.cpu.fetch.nisnDist::stdev             3.432074                       # Number of instructions fetched each cycle (Total) (Count)
system.cpu.fetch.nisnDist::underflows               0      0.00%      0.00% # Number of instructions fetched each cycle (Total) (Count)
system.cpu.fetch.nisnDist::0                  1146462     22.52%     22.52% # Number of instructions fetched each cycle (Total) (Count)
system.cpu.fetch.nisnDist::1                   783642     15.39%     37.92% # Number of instructions fetched each cycle (Total) (Count)
system.cpu.fetch.nisnDist::2                   229905      4.52%     42.43% # Number of instructions fetched each cycle (Total) (Count)
system.cpu.fetch.nisnDist::3                    77743      1.53%     43.96% # Number of instructions fetched each cycle (Total) (Count)
system.cpu.fetch.nisnDist::4                    37711      0.74%     44.70% # Number of instructions fetched each cycle (Total) (Count)
system.cpu.fetch.nisnDist::5                   665312     13.07%     57.77% # Number of instructions fetched each cycle (Total) (Count)
system.cpu.fetch.nisnDist::6                    22558      0.44%     58.21% # Number of instructions fetched each cycle (Total) (Count)
system.cpu.fetch.nisnDist::7                    98490      1.93%     60.15% # Number of instructions fetched each cycle (Total) (Count)
system.cpu.fetch.nisnDist::8                  2028530     39.85%    100.00% # Number of instructions fetched each cycle (Total) (Count)
system.cpu.fetch.nisnDist::overflows                0      0.00%    100.00% # Number of instructions fetched each cycle (Total) (Count)
system.cpu.fetch.nisnDist::min_value                0                       # Number of instructions fetched each cycle (Total) (Count)
system.cpu.fetch.nisnDist::max_value                8                       # Number of instructions fetched each cycle (Total) (Count)
system.cpu.fetch.nisnDist::total              5090353                       # Number of instructions fetched each cycle (Total) (Count)
system.cpu.fetch.branchRate                  0.507138                       # Number of branch fetches per cycle (Ratio)
system.cpu.fetch.rate                        2.126153                       # Number of inst fetches per cycle ((Count/Cycle))
system.cpu.icache.demandHits::cpu.inst         587889                       # number of demand (read+write) hits (Count)
system.cpu.icache.demandHits::total            587889                       # number of demand (read+write) hits (Count)
system.cpu.icache.overallHits::cpu.inst        587889                       # number of overall hits (Count)
system.cpu.icache.overallHits::total           587889                       # number of overall hits (Count)
system.cpu.icache.demandMisses::cpu.inst         1858                       # number of demand (read+write) misses (Count)
system.cpu.icache.demandMisses::total            1858                       # number of demand (read+write) misses (Count)
system.cpu.icache.overallMisses::cpu.inst         1858                       # number of overall misses (Count)
system.cpu.icache.overallMisses::total           1858                       # number of overall misses (Count)
system.cpu.icache.demandMissLatency::cpu.inst    103946999                       # number of demand (read+write) miss ticks (Tick)
system.cpu.icache.demandMissLatency::total    103946999                       # number of demand (read+write) miss ticks (Tick)
system.cpu.icache.overallMissLatency::cpu.inst    103946999                       # number of overall miss ticks (Tick)
system.cpu.icache.overallMissLatency::total    103946999                       # number of overall miss ticks (Tick)
system.cpu.icache.demandAccesses::cpu.inst       589747                       # number of demand (read+write) accesses (Count)
system.cpu.icache.demandAccesses::total        589747                       # number of demand (read+write) accesses (Count)
system.cpu.icache.overallAccesses::cpu.inst       589747                       # number of overall (read+write) accesses (Count)
system.cpu.icache.overallAccesses::total       589747                       # number of overall (read+write) accesses (Count)
system.cpu.icache.demandMissRate::cpu.inst     0.003151                       # miss rate for demand accesses (Ratio)
system.cpu.icache.demandMissRate::total      0.003151                       # miss rate for demand accesses (Ratio)
system.cpu.icache.overallMissRate::cpu.inst     0.003151                       # miss rate for overall accesses (Ratio)
system.cpu.icache.overallMissRate::total     0.003151                       # miss rate for overall accesses (Ratio)
system.cpu.icache.demandAvgMissLatency::cpu.inst 55945.639935                       # average overall miss latency ((Cycle/Count))
system.cpu.icache.demandAvgMissLatency::total 55945.639935                       # average overall miss latency ((Cycle/Count))
system.cpu.icache.overallAvgMissLatency::cpu.inst 55945.639935                       # average overall miss latency ((Cycle/Count))
system.cpu.icache.overallAvgMissLatency::total 55945.639935                       # average overall miss latency ((Cycle/Count))
system.cpu.icache.blockedCycles::no_mshrs          479                       # number of cycles access was blocked (Cycle)
system.cpu.icache.blockedCycles::no_targets            0                       # number of cycles access was blocked (Cycle)
system.cpu.icache.blockedCauses::no_mshrs            7                       # number of times access was blocked (Count)
system.cpu.icache.blockedCauses::no_targets            0                       # number of times access was blocked (Count)
system.cpu.icache.avgBlocked::no_mshrs      68.428571                       # average number of cycles each access was blocked ((Cycle/Count))
system.cpu.icache.avgBlocked::no_targets          nan                       # average number of cycles each access was blocked ((Cycle/Count))
system.cpu.icache.writebacks::writebacks          925                       # number of writebacks (Count)
system.cpu.icache.writebacks::total               925                       # number of writebacks (Count)
system.cpu.icache.demandMshrHits::cpu.inst          426                       # number of demand (read+write) MSHR hits (Count)
system.cpu.icache.demandMshrHits::total           426                       # number of demand (read+write) MSHR hits (Count)
system.cpu.icache.overallMshrHits::cpu.inst          426                       # number of overall MSHR hits (Count)
system.cpu.icache.overallMshrHits::total          426                       # number of overall MSHR hits (Count)
system.cpu.icache.demandMshrMisses::cpu.inst         1432                       # number of demand (read+write) MSHR misses (Count)
system.cpu.icache.demandMshrMisses::total         1432                       # number of demand (read+write) MSHR misses (Count)
system.cpu.icache.overallMshrMisses::cpu.inst         1432                       # number of overall MSHR misses (Count)
system.cpu.icache.overallMshrMisses::total         1432                       # number of overall MSHR misses (Count)
system.cpu.icache.demandMshrMissLatency::cpu.inst     83151000                       # number of demand (read+write) MSHR miss ticks (Tick)
system.cpu.icache.demandMshrMissLatency::total     83151000                       # number of demand (read+write) MSHR miss ticks (Tick)
system.cpu.icache.overallMshrMissLatency::cpu.inst     83151000                       # number of overall MSHR miss ticks (Tick)
system.cpu.icache.overallMshrMissLatency::total     83151000                       # number of overall MSHR miss ticks (Tick)
system.cpu.icache.demandMshrMissRate::cpu.inst     0.002428                       # mshr miss ratio for demand accesses (Ratio)
system.cpu.icache.demandMshrMissRate::total     0.002428                       # mshr miss ratio for demand accesses (Ratio)
system.cpu.icache.overallMshrMissRate::cpu.inst     0.002428                       # mshr miss ratio for overall accesses (Ratio)
system.cpu.icache.overallMshrMissRate::total     0.002428                       # mshr miss ratio for overall accesses (Ratio)
system.cpu.icache.demandAvgMshrMissLatency::cpu.inst 58066.340782                       # average overall mshr miss latency ((Cycle/Count))
system.cpu.icache.demandAvgMshrMissLatency::total 58066.340782                       # average overall mshr miss latency ((Cycle/Count))
system.cpu.icache.overallAvgMshrMissLatency::cpu.inst 58066.340782                       # average overall mshr miss latency ((Cycle/Count))
system.cpu.icache.overallAvgMshrMissLatency::total 58066.340782                       # average overall mshr miss latency ((Cycle/Count))
system.cpu.icache.replacements                    925                       # number of replacements (Count)
system.cpu.icache.ReadReq.hits::cpu.inst       587889                       # number of ReadReq hits (Count)
system.cpu.icache.ReadReq.hits::total          587889                       # number of ReadReq hits (Count)
system.cpu.icache.ReadReq.misses::cpu.inst         1858                       # number of ReadReq misses (Count)
system.cpu.icache.ReadReq.misses::total          1858                       # number of ReadReq misses (Count)
system.cpu.icache.ReadReq.missLatency::cpu.inst    103946999                       # number of ReadReq miss ticks (Tick)
system.cpu.icache.ReadReq.missLatency::total    103946999                       # number of ReadReq miss ticks (Tick)
system.cpu.icache.ReadReq.accesses::cpu.inst       589747                       # number of ReadReq accesses(hits+misses) (Count)
system.cpu.icache.ReadReq.accesses::total       589747                       # number of ReadReq accesses(hits+misses) (Count)
system.cpu.icache.ReadReq.missRate::cpu.inst     0.003151                       # miss rate for ReadReq accesses (Ratio)
system.cpu.icache.ReadReq.missRate::total     0.003151                       # miss rate for ReadReq accesses (Ratio)
system.cpu.icache.ReadReq.avgMissLatency::cpu.inst 55945.639935                       # average ReadReq miss latency ((Tick/Count))
system.cpu.icache.ReadReq.avgMissLatency::total 55945.639935                       # average ReadReq miss latency ((Tick/Count))
system.cpu.icache.ReadReq.mshrHits::cpu.inst          426                       # number of ReadReq MSHR hits (Count)
system.cpu.icache.ReadReq.mshrHits::total          426                       # number of ReadReq MSHR hits (Count)
system.cpu.icache.ReadReq.mshrMisses::cpu.inst         1432                       # number of ReadReq MSHR misses (Count)
system.cpu.icache.ReadReq.mshrMisses::total         1432                       # number of ReadReq MSHR misses (Count)
system.cpu.icache.ReadReq.mshrMissLatency::cpu.inst     83151000                       # number of ReadReq MSHR miss ticks (Tick)
system.cpu.icache.ReadReq.mshrMissLatency::total     83151000                       # number of ReadReq MSHR miss ticks (Tick)
system.cpu.icache.ReadReq.mshrMissRate::cpu.inst     0.002428                       # mshr miss rate for ReadReq accesses (Ratio)
system.cpu.icache.ReadReq.mshrMissRate::total     0.002428                       # mshr miss rate for ReadReq accesses (Ratio)
system.cpu.icache.ReadReq.avgMshrMissLatency::cpu.inst 58066.340782                       # average ReadReq mshr miss latency ((Tick/Count))
system.cpu.icache.ReadReq.avgMshrMissLatency::total 58066.340782                       # average ReadReq mshr miss latency ((Tick/Count))
system.cpu.icache.power_state.pwrStateResidencyTicks::UNDEFINED   2580466500                       # Cumulative time (in ticks) in various power states (Tick)
system.cpu.icache.tags.tagsInUse           500.795956                       # Average ticks per tags in use ((Tick/Count))
system.cpu.icache.tags.totalRefs               589320                       # Total number of references to valid blocks. (Count)
system.cpu.icache.tags.sampledRefs               1431                       # Sample count of references to valid blocks. (Count)
system.cpu.icache.tags.avgRefs             411.823899                       # Average number of references to valid blocks. ((Count/Count))
system.cpu.icache.tags.warmupTick               62500                       # The tick when the warmup percentage was hit. (Tick)
system.cpu.icache.tags.occupancies::cpu.inst   500.795956                       # Average occupied blocks per tick, per requestor ((Count/Tick))
system.cpu.icache.tags.avgOccs::cpu.inst     0.978117                       # Average percentage of cache occupancy ((Ratio/Tick))
system.cpu.icache.tags.avgOccs::total        0.978117                       # Average percentage of cache occupancy ((Ratio/Tick))
system.cpu.icache.tags.occupanciesTaskId::1024          506                       # Occupied blocks per task id (Count)
system.cpu.icache.tags.ageTaskId_1024::0           95                       # Occupied blocks per task id, per block age (Count)
system.cpu.icache.tags.ageTaskId_1024::3          411                       # Occupied blocks per task id, per block age (Count)
system.cpu.icache.tags.ratioOccsTaskId::1024     0.988281                       # Ratio of occupied blocks and all blocks, per task id (Ratio)
system.cpu.icache.tags.tagAccesses            1180925                       # Number of tag accesses (Count)
system.cpu.icache.tags.dataAccesses           1180925                       # Number of data accesses (Count)
system.cpu.icache.tags.power_state.pwrStateResidencyTicks::UNDEFINED   2580466500                       # Cumulative time (in ticks) in various power states (Tick)
system.cpu.iew.idleCycles                           0                       # Number of cycles IEW is idle (Cycle)
system.cpu.iew.squashCycles                    227183                       # Number of cycles IEW is squashing (Cycle)
system.cpu.iew.blockCycles                     922368                       # Number of cycles IEW is blocking (Cycle)
system.cpu.iew.unblockCycles                     6698                       # Number of cycles IEW is unblocking (Cycle)
system.cpu.iew.dispatchedInsts               16727221                       # Number of instructions dispatched to IQ (Count)
system.cpu.iew.dispSquashedInsts                 4200                       # Number of squashed instructions skipped by dispatch (Count)
system.cpu.iew.dispLoadInsts                  1663359                       # Number of dispatched load instructions (Count)
system.cpu.iew.dispStoreInsts                 1032507                       # Number of dispatched store instructions (Count)
system.cpu.iew.dispNonSpecInsts                    66                       # Number of dispatched non-speculative instructions (Count)
system.cpu.iew.iqFullEvents                      1264                       # Number of times the IQ has become full, causing a stall (Count)
system.cpu.iew.lsqFullEvents                     4824                       # Number of times the LSQ has become full, causing a stall (Count)
system.cpu.iew.memOrderViolationEvents             86                       # Number of memory order violations (Count)
system.cpu.iew.predictedTakenIncorrect         172213                       # Number of branches that were predicted taken incorrectly (Count)
system.cpu.iew.predictedNotTakenIncorrect       113939                       # Number of branches that were predicted not taken incorrectly (Count)
system.cpu.iew.branchMispredicts               286152                       # Number of branch mispredicts detected at execute (Count)
system.cpu.iew.instsToCommit                 13850723                       # Cumulative count of insts sent to commit (Count)
system.cpu.iew.writebackCount                13758623                       # Cumulative count of insts written-back (Count)
system.cpu.iew.producerInst                  10060192                       # Number of instructions producing a value (Count)
system.cpu.iew.consumerInst                  13518265                       # Number of instructions consuming a value (Count)
system.cpu.iew.wbRate                        2.665917                       # Insts written-back per cycle ((Count/Cycle))
system.cpu.iew.wbFanout                      0.744193                       # Average fanout of values written-back ((Count/Count))
system.cpu.interrupts.clk_domain.clock           8000                       # Clock period in ticks (Tick)
system.cpu.itb_walker_cache.blockedCycles::no_mshrs            0                       # number of cycles access was blocked (Cycle)
system.cpu.itb_walker_cache.blockedCycles::no_targets            0                       # number of cycles access was blocked (Cycle)
system.cpu.itb_walker_cache.blockedCauses::no_mshrs            0                       # number of times access was blocked (Count)
system.cpu.itb_walker_cache.blockedCauses::no_targets            0                       # number of times access was blocked (Count)
system.cpu.itb_walker_cache.avgBlocked::no_mshrs          nan                       # average number of cycles each access was blocked ((Cycle/Count))
system.cpu.itb_walker_cache.avgBlocked::no_targets          nan                       # average number of cycles each access was blocked ((Cycle/Count))
system.cpu.itb_walker_cache.replacements            0                       # number of replacements (Count)
system.cpu.itb_walker_cache.power_state.pwrStateResidencyTicks::UNDEFINED   2580466500                       # Cumulative time (in ticks) in various power states (Tick)
system.cpu.itb_walker_cache.tags.tagsInUse            0                       # Average ticks per tags in use ((Tick/Count))
system.cpu.itb_walker_cache.tags.totalRefs            0                       # Total number of references to valid blocks. (Count)
system.cpu.itb_walker_cache.tags.sampledRefs            0                       # Sample count of references to valid blocks. (Count)
system.cpu.itb_walker_cache.tags.avgRefs          nan                       # Average number of references to valid blocks. ((Count/Count))
system.cpu.itb_walker_cache.tags.warmupTick            0                       # The tick when the warmup percentage was hit. (Tick)
system.cpu.itb_walker_cache.tags.tagAccesses            0                       # Number of tag accesses (Count)
system.cpu.itb_walker_cache.tags.dataAccesses            0                       # Number of data accesses (Count)
system.cpu.itb_walker_cache.tags.power_state.pwrStateResidencyTicks::UNDEFINED   2580466500                       # Cumulative time (in ticks) in various power states (Tick)
system.cpu.lsq0.forwLoads                       10867                       # Number of loads that had data forwarded from stores (Count)
system.cpu.lsq0.squashedLoads                  744589                       # Number of loads squashed (Count)
system.cpu.lsq0.ignoredResponses                   22                       # Number of memory responses ignored because the instruction is squashed (Count)
system.cpu.lsq0.memOrderViolation                  86                       # Number of memory ordering violations (Count)
system.cpu.lsq0.squashedStores                 521615                       # Number of stores squashed (Count)
system.cpu.lsq0.rescheduledLoads                    1                       # Number of loads that were rescheduled (Count)
system.cpu.lsq0.blockedByCache                    443                       # Number of times an access to memory failed due to the cache being blocked (Count)
system.cpu.lsq0.loadToUse::samples             918770                       # Distribution of cycle latency between the first time a load is issued and its completion (Unspecified)
system.cpu.lsq0.loadToUse::mean              4.164888                       # Distribution of cycle latency between the first time a load is issued and its completion (Unspecified)
system.cpu.lsq0.loadToUse::stdev            10.285425                       # Distribution of cycle latency between the first time a load is issued and its completion (Unspecified)
system.cpu.lsq0.loadToUse::0-9                 906751     98.69%     98.69% # Distribution of cycle latency between the first time a load is issued and its completion (Unspecified)
system.cpu.lsq0.loadToUse::10-19                  647      0.07%     98.76% # Distribution of cycle latency between the first time a load is issued and its completion (Unspecified)
system.cpu.lsq0.loadToUse::20-29                 3654      0.40%     99.16% # Distribution of cycle latency between the first time a load is issued and its completion (Unspecified)
system.cpu.lsq0.loadToUse::30-39                  618      0.07%     99.23% # Distribution of cycle latency between the first time a load is issued and its completion (Unspecified)
system.cpu.lsq0.loadToUse::40-49                  158      0.02%     99.24% # Distribution of cycle latency between the first time a load is issued and its completion (Unspecified)
system.cpu.lsq0.loadToUse::50-59                  115      0.01%     99.26% # Distribution of cycle latency between the first time a load is issued and its completion (Unspecified)
system.cpu.lsq0.loadToUse::60-69                  102      0.01%     99.27% # Distribution of cycle latency between the first time a load is issued and its completion (Unspecified)
system.cpu.lsq0.loadToUse::70-79                  171      0.02%     99.29% # Distribution of cycle latency between the first time a load is issued and its completion (Unspecified)
system.cpu.lsq0.loadToUse::80-89                  212      0.02%     99.31% # Distribution of cycle latency between the first time a load is issued and its completion (Unspecified)
[...]
system.l2.ReadExReq.accesses::cpu.data           1082                       # number of ReadExReq accesses(hits+misses) (Count)
system.l2.ReadExReq.accesses::total              1082                       # number of ReadExReq accesses(hits+misses) (Count)
system.l2.ReadExReq.missRate::cpu.data       0.532348                       # miss rate for ReadExReq accesses (Ratio)
system.l2.ReadExReq.missRate::total          0.532348                       # miss rate for ReadExReq accesses (Ratio)
system.l2.ReadExReq.avgMissLatency::cpu.data 61133.680556                       # average ReadExReq miss latency ((Tick/Count))
system.l2.ReadExReq.avgMissLatency::total 61133.680556                       # average ReadExReq miss latency ((Tick/Count))
system.l2.ReadExReq.mshrMisses::cpu.data          576                       # number of ReadExReq MSHR misses (Count)
system.l2.ReadExReq.mshrMisses::total             576                       # number of ReadExReq MSHR misses (Count)
system.l2.ReadExReq.mshrMissLatency::cpu.data     29453000                       # number of ReadExReq MSHR miss ticks (Tick)
system.l2.ReadExReq.mshrMissLatency::total     29453000                       # number of ReadExReq MSHR miss ticks (Tick)
system.l2.ReadExReq.mshrMissRate::cpu.data     0.532348                       # mshr miss rate for ReadExReq accesses (Ratio)
system.l2.ReadExReq.mshrMissRate::total      0.532348                       # mshr miss rate for ReadExReq accesses (Ratio)
system.l2.ReadExReq.avgMshrMissLatency::cpu.data 51133.680556                       # average ReadExReq mshr miss latency ((Tick/Count))
system.l2.ReadExReq.avgMshrMissLatency::total 51133.680556                       # average ReadExReq mshr miss latency ((Tick/Count))
system.l2.ReadSharedReq.hits::cpu.data           3078                       # number of ReadSharedReq hits (Count)
system.l2.ReadSharedReq.hits::total              3078                       # number of ReadSharedReq hits (Count)
system.l2.ReadSharedReq.misses::cpu.data         2047                       # number of ReadSharedReq misses (Count)
system.l2.ReadSharedReq.misses::total            2047                       # number of ReadSharedReq misses (Count)
system.l2.ReadSharedReq.missLatency::cpu.data    125435000                       # number of ReadSharedReq miss ticks (Tick)
system.l2.ReadSharedReq.missLatency::total    125435000                       # number of ReadSharedReq miss ticks (Tick)
system.l2.ReadSharedReq.accesses::cpu.data         5125                       # number of ReadSharedReq accesses(hits+misses) (Count)
system.l2.ReadSharedReq.accesses::total          5125                       # number of ReadSharedReq accesses(hits+misses) (Count)
system.l2.ReadSharedReq.missRate::cpu.data     0.399415                       # miss rate for ReadSharedReq accesses (Ratio)
system.l2.ReadSharedReq.missRate::total      0.399415                       # miss rate for ReadSharedReq accesses (Ratio)
system.l2.ReadSharedReq.avgMissLatency::cpu.data 61277.479238                       # average ReadSharedReq miss latency ((Tick/Count))
system.l2.ReadSharedReq.avgMissLatency::total 61277.479238                       # average ReadSharedReq miss latency ((Tick/Count))
system.l2.ReadSharedReq.mshrMisses::cpu.data         2047                       # number of ReadSharedReq MSHR misses (Count)
system.l2.ReadSharedReq.mshrMisses::total         2047                       # number of ReadSharedReq MSHR misses (Count)
system.l2.ReadSharedReq.mshrMissLatency::cpu.data    104965000                       # number of ReadSharedReq MSHR miss ticks (Tick)
system.l2.ReadSharedReq.mshrMissLatency::total    104965000                       # number of ReadSharedReq MSHR miss ticks (Tick)
system.l2.ReadSharedReq.mshrMissRate::cpu.data     0.399415                       # mshr miss rate for ReadSharedReq accesses (Ratio)
system.l2.ReadSharedReq.mshrMissRate::total     0.399415                       # mshr miss rate for ReadSharedReq accesses (Ratio)
system.l2.ReadSharedReq.avgMshrMissLatency::cpu.data 51277.479238                       # average ReadSharedReq mshr miss latency ((Tick/Count))
system.l2.ReadSharedReq.avgMshrMissLatency::total 51277.479238                       # average ReadSharedReq mshr miss latency ((Tick/Count))
system.l2.WritebackClean.hits::writebacks          925                       # number of WritebackClean hits (Count)
system.l2.WritebackClean.hits::total              925                       # number of WritebackClean hits (Count)
system.l2.WritebackClean.accesses::writebacks          925                       # number of WritebackClean accesses(hits+misses) (Count)
system.l2.WritebackClean.accesses::total          925                       # number of WritebackClean accesses(hits+misses) (Count)
system.l2.WritebackDirty.hits::writebacks         2944                       # number of WritebackDirty hits (Count)
system.l2.WritebackDirty.hits::total             2944                       # number of WritebackDirty hits (Count)
system.l2.WritebackDirty.accesses::writebacks         2944                       # number of WritebackDirty accesses(hits+misses) (Count)
system.l2.WritebackDirty.accesses::total         2944                       # number of WritebackDirty accesses(hits+misses) (Count)
system.l2.power_state.pwrStateResidencyTicks::UNDEFINED   2580466500                       # Cumulative time (in ticks) in various power states (Tick)
system.l2.tags.tagsInUse                  3711.715713                       # Average ticks per tags in use ((Tick/Count))
system.l2.tags.totalRefs                        14700                       # Total number of references to valid blocks. (Count)
system.l2.tags.sampledRefs                       3925                       # Sample count of references to valid blocks. (Count)
system.l2.tags.avgRefs                       3.745223                       # Average number of references to valid blocks. ((Count/Count))
system.l2.tags.warmupTick                       52000                       # The tick when the warmup percentage was hit. (Tick)
system.l2.tags.occupancies::cpu.inst      1195.979383                       # Average occupied blocks per tick, per requestor ((Count/Tick))
system.l2.tags.occupancies::cpu.data      2515.736330                       # Average occupied blocks per tick, per requestor ((Count/Tick))
system.l2.tags.avgOccs::cpu.inst             0.036498                       # Average percentage of cache occupancy ((Ratio/Tick))
system.l2.tags.avgOccs::cpu.data             0.076774                       # Average percentage of cache occupancy ((Ratio/Tick))
system.l2.tags.avgOccs::total                0.113273                       # Average percentage of cache occupancy ((Ratio/Tick))
system.l2.tags.occupanciesTaskId::1024           3925                       # Occupied blocks per task id (Count)
system.l2.tags.ageTaskId_1024::0                   79                       # Occupied blocks per task id, per block age (Count)
system.l2.tags.ageTaskId_1024::3                 3846                       # Occupied blocks per task id, per block age (Count)
system.l2.tags.ratioOccsTaskId::1024         0.119781                       # Ratio of occupied blocks and all blocks, per task id (Ratio)
system.l2.tags.tagAccesses                     121533                       # Number of tag accesses (Count)
system.l2.tags.dataAccesses                    121533                       # Number of data accesses (Count)
system.l2.tags.power_state.pwrStateResidencyTicks::UNDEFINED   2580466500                       # Cumulative time (in ticks) in various power states (Tick)
system.mem_ctrls.bytesRead::cpu.inst            83392                       # Number of bytes read from this memory (Byte)
system.mem_ctrls.bytesRead::cpu.data           167872                       # Number of bytes read from this memory (Byte)
system.mem_ctrls.bytesRead::total              251264                       # Number of bytes read from this memory (Byte)
system.mem_ctrls.bytesInstRead::cpu.inst        83392                       # Number of instructions bytes read from this memory (Byte)
system.mem_ctrls.bytesInstRead::total           83392                       # Number of instructions bytes read from this memory (Byte)
system.mem_ctrls.numReads::cpu.inst              1303                       # Number of read requests responded to by this memory (Count)
system.mem_ctrls.numReads::cpu.data              2623                       # Number of read requests responded to by this memory (Count)
system.mem_ctrls.numReads::total                 3926                       # Number of read requests responded to by this memory (Count)
system.mem_ctrls.bwRead::cpu.inst            32316637                       # Total read bandwidth from this memory ((Byte/Second))
system.mem_ctrls.bwRead::cpu.data            65054904                       # Total read bandwidth from this memory ((Byte/Second))
system.mem_ctrls.bwRead::total               97371541                       # Total read bandwidth from this memory ((Byte/Second))
system.mem_ctrls.bwInstRead::cpu.inst        32316637                       # Instruction read bandwidth from this memory ((Byte/Second))
system.mem_ctrls.bwInstRead::total           32316637                       # Instruction read bandwidth from this memory ((Byte/Second))
system.mem_ctrls.bwTotal::cpu.inst           32316637                       # Total bandwidth to/from this memory ((Byte/Second))
system.mem_ctrls.bwTotal::cpu.data           65054904                       # Total bandwidth to/from this memory ((Byte/Second))
system.mem_ctrls.bwTotal::total              97371541                       # Total bandwidth to/from this memory ((Byte/Second))
system.mem_ctrls.power_state.pwrStateResidencyTicks::UNDEFINED   2580466500                       # Cumulative time (in ticks) in various power states (Tick)
system.membus.transDist::ReadResp                3349                       # Transaction distribution (Count)
system.membus.transDist::ReadExReq                576                       # Transaction distribution (Count)
system.membus.transDist::ReadExResp               576                       # Transaction distribution (Count)
system.membus.transDist::ReadSharedReq           3350                       # Transaction distribution (Count)
system.membus.pktCount_system.l2.mem_side_port::system.mem_ctrls.port         7851                       # Packet count per connected requestor and responder (Count)
system.membus.pktCount_system.l2.mem_side_port::total         7851                       # Packet count per connected requestor and responder (Count)
system.membus.pktCount::total                    7851                       # Packet count per connected requestor and responder (Count)
system.membus.pktSize_system.l2.mem_side_port::system.mem_ctrls.port       251200                       # Cumulative packet size per connected requestor and responder (Byte)
system.membus.pktSize_system.l2.mem_side_port::total       251200                       # Cumulative packet size per connected requestor and responder (Byte)
system.membus.pktSize::total                   251200                       # Cumulative packet size per connected requestor and responder (Byte)
system.membus.snoops                                0                       # Total snoops (Count)
system.membus.snoopTraffic                          0                       # Total snoop traffic (Byte)
system.membus.snoopFanout::samples               4502                       # Request fanout histogram (Count)
system.membus.snoopFanout::mean                     0                       # Request fanout histogram (Count)
system.membus.snoopFanout::stdev                    0                       # Request fanout histogram (Count)
system.membus.snoopFanout::underflows               0      0.00%      0.00% # Request fanout histogram (Count)
system.membus.snoopFanout::0                     4502    100.00%    100.00% # Request fanout histogram (Count)
system.membus.snoopFanout::1                        0      0.00%    100.00% # Request fanout histogram (Count)
system.membus.snoopFanout::overflows                0      0.00%    100.00% # Request fanout histogram (Count)
system.membus.snoopFanout::min_value                0                       # Request fanout histogram (Count)
system.membus.snoopFanout::max_value                0                       # Request fanout histogram (Count)
system.membus.snoopFanout::total                 4502                       # Request fanout histogram (Count)
system.membus.power_state.pwrStateResidencyTicks::UNDEFINED   2580466500                       # Cumulative time (in ticks) in various power states (Tick)
system.membus.reqLayer2.occupancy             5623268                       # Layer occupancy (ticks) (Tick)
system.membus.reqLayer2.utilization               0.0                       # Layer utilization (Ratio)
system.membus.respLayer1.occupancy           19625000                       # Layer occupancy (ticks) (Tick)
system.membus.respLayer1.utilization              0.0                       # Layer utilization (Ratio)
system.membus.snoop_filter.totRequests           4502                       # Total number of requests made to the snoop filter. (Count)
system.membus.snoop_filter.hitSingleRequests            0                       # Number of requests hitting in the snoop filter with a single holder of the requested data. (Count)
system.membus.snoop_filter.hitMultiRequests            0                       # Number of requests hitting in the snoop filter with multiple (>1) holders of the requested data. (Count)
system.membus.snoop_filter.totSnoops                0                       # Total number of snoops made to the snoop filter. (Count)
system.membus.snoop_filter.hitSingleSnoops            0                       # Number of snoops hitting in the snoop filter with a single holder of the requested data. (Count)
system.membus.snoop_filter.hitMultiSnoops            0                       # Number of snoops hitting in the snoop filter with multiple (>1) holders of the requested data. (Count)
system.tol2bus.transDist::ReadResp               6556                       # Transaction distribution (Count)
system.tol2bus.transDist::WritebackDirty         2944                       # Transaction distribution (Count)
system.tol2bus.transDist::WritebackClean          925                       # Transaction distribution (Count)
system.tol2bus.transDist::CleanEvict             3199                       # Transaction distribution (Count)
system.tol2bus.transDist::ReadExReq              1082                       # Transaction distribution (Count)
system.tol2bus.transDist::ReadExResp             1082                       # Transaction distribution (Count)
system.tol2bus.transDist::ReadCleanReq           1432                       # Transaction distribution (Count)
system.tol2bus.transDist::ReadSharedReq          5125                       # Transaction distribution (Count)
system.tol2bus.pktCount_system.cpu.icache.mem_side_port::system.l2.cpu_side_port         3787                       # Packet count per connected requestor and responder (Count)
system.tol2bus.pktCount_system.cpu.dcache.mem_side_port::system.l2.cpu_side_port        18557                       # Packet count per connected requestor and responder (Count)
system.tol2bus.pktCount::total                  22344                       # Packet count per connected requestor and responder (Count)
system.tol2bus.pktSize_system.cpu.icache.mem_side_port::system.l2.cpu_side_port       150720                       # Cumulative packet size per connected requestor and responder (Byte)
system.tol2bus.pktSize_system.cpu.dcache.mem_side_port::system.l2.cpu_side_port       585664                       # Cumulative packet size per connected requestor and responder (Byte)
system.tol2bus.pktSize::total                  736384                       # Cumulative packet size per connected requestor and responder (Byte)
system.tol2bus.snoops                               1                       # Total snoops (Count)
system.tol2bus.snoopTraffic                        64                       # Total snoop traffic (Byte)
system.tol2bus.snoopFanout::samples              7639                       # Request fanout histogram (Count)
system.tol2bus.snoopFanout::mean             0.000785                       # Request fanout histogram (Count)
system.tol2bus.snoopFanout::stdev            0.028017                       # Request fanout histogram (Count)
system.tol2bus.snoopFanout::underflows              0      0.00%      0.00% # Request fanout histogram (Count)
system.tol2bus.snoopFanout::0                    7633     99.92%     99.92% # Request fanout histogram (Count)
system.tol2bus.snoopFanout::1                       6      0.08%    100.00% # Request fanout histogram (Count)
system.tol2bus.snoopFanout::2                       0      0.00%    100.00% # Request fanout histogram (Count)
system.tol2bus.snoopFanout::3                       0      0.00%    100.00% # Request fanout histogram (Count)
system.tol2bus.snoopFanout::4                       0      0.00%    100.00% # Request fanout histogram (Count)
system.tol2bus.snoopFanout::overflows               0      0.00%    100.00% # Request fanout histogram (Count)
system.tol2bus.snoopFanout::min_value               0                       # Request fanout histogram (Count)
system.tol2bus.snoopFanout::max_value               1                       # Request fanout histogram (Count)
system.tol2bus.snoopFanout::total                7639                       # Request fanout histogram (Count)
system.tol2bus.power_state.pwrStateResidencyTicks::UNDEFINED   2580466500                       # Cumulative time (in ticks) in various power states (Tick)
system.tol2bus.reqLayer0.occupancy           11222500                       # Layer occupancy (ticks) (Tick)
system.tol2bus.reqLayer0.utilization              0.0                       # Layer utilization (Ratio)
system.tol2bus.respLayer0.occupancy           2149494                       # Layer occupancy (ticks) (Tick)
system.tol2bus.respLayer0.utilization             0.0                       # Layer utilization (Ratio)
system.tol2bus.respLayer1.occupancy           9310500                       # Layer occupancy (ticks) (Tick)
system.tol2bus.respLayer1.utilization             0.0                       # Layer utilization (Ratio)
system.tol2bus.snoop_filter.totRequests         14707                       # Total number of requests made to the snoop filter. (Count)
system.tol2bus.snoop_filter.hitSingleRequests         7068                       # Number of requests hitting in the snoop filter with a single holder of the requested data. (Count)
system.tol2bus.snoop_filter.hitMultiRequests            6                       # Number of requests hitting in the snoop filter with multiple (>1) holders of the requested data. (Count)
system.tol2bus.snoop_filter.totSnoops               0                       # Total number of snoops made to the snoop filter. (Count)
system.tol2bus.snoop_filter.hitSingleSnoops            0                       # Number of snoops hitting in the snoop filter with a single holder of the requested data. (Count)
system.tol2bus.snoop_filter.hitMultiSnoops            0                       # Number of snoops hitting in the snoop filter with multiple (>1) holders of the requested data. (Count)
system.voltage_domain.voltage                       1                       # Voltage in Volts (Volt)
system.workload.inst.arm                            0                       # number of arm instructions executed (Count)
system.workload.inst.quiesce                        0                       # number of quiesce instructions executed (Count)

---------- End Simulation Statistics   ----------
