
---------- Begin Simulation Statistics ----------
simSeconds                                   0.007516                       # Number of seconds simulated (Second)
simTicks                                   7516380000                       # Number of ticks simulated (Tick)
finalTick                                  7516380000                       # Number of ticks from beginning of simulation (restored from checkpoints and never reset) (Tick)
simFreq                                  1000000000000                       # The number of ticks per simulated second ((Tick/Second))
hostSeconds                                   1859.98                       # Real time elapsed on the host (Second)
hostTickRate                                  4041103                       # The number of ticks simulated per host second (ticks/s) ((Tick/Second))
hostMemory                                    9097212                       # Number of bytes of host memory used (Byte)
simInsts                                     52374321                       # Number of instructions simulated (Count)
simOps                                       99952730                       # Number of ops (including micro ops) simulated (Count)
hostInstRate                                    28158                       # Simulator instruction rate (inst/s) ((Count/Second))
hostOpRate                                      53738                       # Simulator op (including micro ops) rate (op/s) ((Count/Second))
system.clk_domain.clock                          1000                       # Clock period in ticks (Tick)
system.cpu0.numCycles                        15032761                       # Number of cpu cycles simulated (Cycle)
system.cpu0.numWorkItemsStarted                     0                       # Number of work items this cpu started (Count)
system.cpu0.numWorkItemsCompleted                   0                       # Number of work items this cpu completed (Count)
system.cpu0.instsAdded                       29773364                       # Number of instructions added to the IQ (excludes non-spec) (Count)
system.cpu0.nonSpecInstsAdded                   70145                       # Number of non-speculative instructions added to the IQ (Count)
system.cpu0.instsIssued                      28213247                       # Number of instructions issued (Count)
system.cpu0.squashedInstsIssued                111186                       # Number of squashed instructions issued (Count)
system.cpu0.squashedInstsExamined             4855310                       # Number of squashed instructions iterated over during squash; mainly for profiling (Count)
system.cpu0.squashedOperandsExamined          6685964                       # Number of squashed operands that are examined and possibly removed from graph (Count)
system.cpu0.squashedNonSpecRemoved              40984                       # Number of squashed non-spec instructions that were removed (Count)
system.cpu0.numIssuedDist::samples           14719862                       # Number of insts issued each cycle (Count)
system.cpu0.numIssuedDist::mean              1.916679                       # Number of insts issued each cycle (Count)
system.cpu0.numIssuedDist::stdev             2.536840                       # Number of insts issued each cycle (Count)
system.cpu0.numIssuedDist::underflows               0      0.00%      0.00% # Number of insts issued each cycle (Count)
system.cpu0.numIssuedDist::0                  8109252     55.09%     55.09% # Number of insts issued each cycle (Count)
system.cpu0.numIssuedDist::1                   845440      5.74%     60.83% # Number of insts issued each cycle (Count)
system.cpu0.numIssuedDist::2                   743255      5.05%     65.88% # Number of insts issued each cycle (Count)
system.cpu0.numIssuedDist::3                  1047343      7.12%     73.00% # Number of insts issued each cycle (Count)
system.cpu0.numIssuedDist::4                   763683      5.19%     78.19% # Number of insts issued each cycle (Count)
system.cpu0.numIssuedDist::5                   891099      6.05%     84.24% # Number of insts issued each cycle (Count)
system.cpu0.numIssuedDist::6                  1268944      8.62%     92.86% # Number of insts issued each cycle (Count)
system.cpu0.numIssuedDist::7                   791391      5.38%     98.24% # Number of insts issued each cycle (Count)
system.cpu0.numIssuedDist::8                   259455      1.76%    100.00% # Number of insts issued each cycle (Count)
system.cpu0.numIssuedDist::overflows                0      0.00%    100.00% # Number of insts issued each cycle (Count)
system.cpu0.numIssuedDist::min_value                0                       # Number of insts issued each cycle (Count)
system.cpu0.numIssuedDist::max_value                8                       # Number of insts issued each cycle (Count)
system.cpu0.numIssuedDist::total             14719862                       # Number of insts issued each cycle (Count)
system.cpu0.statFuBusy::No_OpClass                  0      0.00%      0.00% # attempts to use FU when none available (Count)
system.cpu0.statFuBusy::IntAlu                1243323     96.98%     96.98% # attempts to use FU when none available (Count)
system.cpu0.statFuBusy::IntMult                     0      0.00%     96.98% # attempts to use FU when none available (Count)
system.cpu0.statFuBusy::IntDiv                      0      0.00%     96.98% # attempts to use FU when none available (Count)
system.cpu0.statFuBusy::FloatAdd                    0      0.00%     96.98% # attempts to use FU when none available (Count)
system.cpu0.statFuBusy::FloatCmp                    0      0.00%     96.98% # attempts to use FU when none available (Count)
system.cpu0.statFuBusy::FloatCvt                    2      0.00%     96.98% # attempts to use FU when none available (Count)
system.cpu0.statFuBusy::FloatMult                   0      0.00%     96.98% # attempts to use FU when none available (Count)
system.cpu0.statFuBusy::FloatMultAcc                0      0.00%     96.98% # attempts to use FU when none available (Count)
system.cpu0.statFuBusy::FloatDiv                    0      0.00%     96.98% # attempts to use FU when none available (Count)
system.cpu0.statFuBusy::FloatMisc                   0      0.00%     96.98% # attempts to use FU when none available (Count)
system.cpu0.statFuBusy::FloatSqrt                   0      0.00%     96.98% # attempts to use FU when none available (Count)
system.cpu0.statFuBusy::SimdAdd                     1      0.00%     96.98% # attempts to use FU when none available (Count)
system.cpu0.statFuBusy::SimdAddAcc                  0      0.00%     96.98% # attempts to use FU when none available (Count)
system.cpu0.statFuBusy::SimdAlu                   132      0.01%     96.99% # attempts to use FU when none available (Count)
system.cpu0.statFuBusy::SimdCmp                     0      0.00%     96.99% # attempts to use FU when none available (Count)
system.cpu0.statFuBusy::SimdCvt                  1016      0.08%     97.06% # attempts to use FU when none available (Count)
system.cpu0.statFuBusy::SimdMisc                   15      0.00%     97.07% # attempts to use FU when none available (Count)
system.cpu0.statFuBusy::SimdMult                    0      0.00%     97.07% # attempts to use FU when none available (Count)
system.cpu0.statFuBusy::SimdMultAcc                 0      0.00%     97.07% # attempts to use FU when none available (Count)
system.cpu0.statFuBusy::SimdShift                  20      0.00%     97.07% # attempts to use FU when none available (Count)
system.cpu0.statFuBusy::SimdShiftAcc                0      0.00%     97.07% # attempts to use FU when none available (Count)
system.cpu0.statFuBusy::SimdDiv                     0      0.00%     97.07% # attempts to use FU when none available (Count)
system.cpu0.statFuBusy::SimdSqrt                    0      0.00%     97.07% # attempts to use FU when none available (Count)
system.cpu0.statFuBusy::SimdFloatAdd                0      0.00%     97.07% # attempts to use FU when none available (Count)
system.cpu0.statFuBusy::SimdFloatAlu                0      0.00%     97.07% # attempts to use FU when none available (Count)
system.cpu0.statFuBusy::SimdFloatCmp                0      0.00%     97.07% # attempts to use FU when none available (Count)
system.cpu0.statFuBusy::SimdFloatCvt                0      0.00%     97.07% # attempts to use FU when none available (Count)
system.cpu0.statFuBusy::SimdFloatDiv                0      0.00%     97.07% # attempts to use FU when none available (Count)
system.cpu0.statFuBusy::SimdFloatMisc               0      0.00%     97.07% # attempts to use FU when none available (Count)
system.cpu0.statFuBusy::SimdFloatMult               0      0.00%     97.07% # attempts to use FU when none available (Count)
system.cpu0.statFuBusy::SimdFloatMultAcc            0      0.00%     97.07% # attempts to use FU when none available (Count)
system.cpu0.statFuBusy::SimdFloatSqrt               0      0.00%     97.07% # attempts to use FU when none available (Count)
system.cpu0.statFuBusy::SimdReduceAdd               0      0.00%     97.07% # attempts to use FU when none available (Count)
system.cpu0.statFuBusy::SimdReduceAlu               0      0.00%     97.07% # attempts to use FU when none available (Count)
system.cpu0.statFuBusy::SimdReduceCmp               0      0.00%     97.07% # attempts to use FU when none available (Count)
system.cpu0.statFuBusy::SimdFloatReduceAdd            0      0.00%     97.07% # attempts to use FU when none available (Count)
system.cpu0.statFuBusy::SimdFloatReduceCmp            0      0.00%     97.07% # attempts to use FU when none available (Count)
system.cpu0.statFuBusy::SimdAes                     0      0.00%     97.07% # attempts to use FU when none available (Count)
system.cpu0.statFuBusy::SimdAesMix                  0      0.00%     97.07% # attempts to use FU when none available (Count)
system.cpu0.statFuBusy::SimdSha1Hash                0      0.00%     97.07% # attempts to use FU when none available (Count)
system.cpu0.statFuBusy::SimdSha1Hash2               0      0.00%     97.07% # attempts to use FU when none available (Count)
system.cpu0.statFuBusy::SimdSha256Hash              0      0.00%     97.07% # attempts to use FU when none available (Count)
system.cpu0.statFuBusy::SimdSha256Hash2             0      0.00%     97.07% # attempts to use FU when none available (Count)
system.cpu0.statFuBusy::SimdShaSigma2               0      0.00%     97.07% # attempts to use FU when none available (Count)
system.cpu0.statFuBusy::SimdShaSigma3               0      0.00%     97.07% # attempts to use FU when none available (Count)
system.cpu0.statFuBusy::SimdPredAlu                 0      0.00%     97.07% # attempts to use FU when none available (Count)
system.cpu0.statFuBusy::MemRead                 27648      2.16%     99.22% # attempts to use FU when none available (Count)
system.cpu0.statFuBusy::MemWrite                 8948      0.70%     99.92% # attempts to use FU when none available (Count)
system.cpu0.statFuBusy::FloatMemRead              751      0.06%     99.98% # attempts to use FU when none available (Count)
system.cpu0.statFuBusy::FloatMemWrite             250      0.02%    100.00% # attempts to use FU when none available (Count)
system.cpu0.statFuBusy::IprAccess                   0      0.00%    100.00% # attempts to use FU when none available (Count)
system.cpu0.statFuBusy::InstPrefetch                0      0.00%    100.00% # attempts to use FU when none available (Count)
system.cpu0.statIssuedInstType_0::No_OpClass       106507      0.38%      0.38% # Number of instructions issued per FU type, per thread (Count)
system.cpu0.statIssuedInstType_0::IntAlu     23864899     84.59%     84.97% # Number of instructions issued per FU type, per thread (Count)
system.cpu0.statIssuedInstType_0::IntMult       121629      0.43%     85.40% # Number of instructions issued per FU type, per thread (Count)
system.cpu0.statIssuedInstType_0::IntDiv        40554      0.14%     85.54% # Number of instructions issued per FU type, per thread (Count)
system.cpu0.statIssuedInstType_0::FloatAdd         8644      0.03%     85.57% # Number of instructions issued per FU type, per thread (Count)
system.cpu0.statIssuedInstType_0::FloatCmp            0      0.00%     85.57% # Number of instructions issued per FU type, per thread (Count)
system.cpu0.statIssuedInstType_0::FloatCvt         2556      0.01%     85.58% # Number of instructions issued per FU type, per thread (Count)
system.cpu0.statIssuedInstType_0::FloatMult            0      0.00%     85.58% # Number of instructions issued per FU type, per thread (Count)
system.cpu0.statIssuedInstType_0::FloatMultAcc            0      0.00%     85.58% # Number of instructions issued per FU type, per thread (Count)
system.cpu0.statIssuedInstType_0::FloatDiv            0      0.00%     85.58% # Number of instructions issued per FU type, per thread (Count)
system.cpu0.statIssuedInstType_0::FloatMisc            0      0.00%     85.58% # Number of instructions issued per FU type, per thread (Count)
system.cpu0.statIssuedInstType_0::FloatSqrt            0      0.00%     85.58% # Number of instructions issued per FU type, per thread (Count)
system.cpu0.statIssuedInstType_0::SimdAdd         7811      0.03%     85.61% # Number of instructions issued per FU type, per thread (Count)
system.cpu0.statIssuedInstType_0::SimdAddAcc            0      0.00%     85.61% # Number of instructions issued per FU type, per thread (Count)
system.cpu0.statIssuedInstType_0::SimdAlu        16045      0.06%     85.66% # Number of instructions issued per FU type, per thread (Count)
system.cpu0.statIssuedInstType_0::SimdCmp            8      0.00%     85.66% # Number of instructions issued per FU type, per thread (Count)
system.cpu0.statIssuedInstType_0::SimdCvt        17002      0.06%     85.72% # Number of instructions issued per FU type, per thread (Count)
system.cpu0.statIssuedInstType_0::SimdMisc        14931      0.05%     85.78% # Number of instructions issued per FU type, per thread (Count)
system.cpu0.statIssuedInstType_0::SimdMult            0      0.00%     85.78% # Number of instructions issued per FU type, per thread (Count)
system.cpu0.statIssuedInstType_0::SimdMultAcc            0      0.00%     85.78% # Number of instructions issued per FU type, per thread (Count)
system.cpu0.statIssuedInstType_0::SimdShift         2327      0.01%     85.79% # Number of instructions issued per FU type, per thread (Count)
system.cpu0.statIssuedInstType_0::SimdShiftAcc            0      0.00%     85.79% # Number of instructions issued per FU type, per thread (Count)
system.cpu0.statIssuedInstType_0::SimdDiv            0      0.00%     85.79% # Number of instructions issued per FU type, per thread (Count)
system.cpu0.statIssuedInstType_0::SimdSqrt            0      0.00%     85.79% # Number of instructions issued per FU type, per thread (Count)
system.cpu0.statIssuedInstType_0::SimdFloatAdd            4      0.00%     85.79% # Number of instructions issued per FU type, per thread (Count)
system.cpu0.statIssuedInstType_0::SimdFloatAlu            0      0.00%     85.79% # Number of instructions issued per FU type, per thread (Count)
system.cpu0.statIssuedInstType_0::SimdFloatCmp            0      0.00%     85.79% # Number of instructions issued per FU type, per thread (Count)
system.cpu0.statIssuedInstType_0::SimdFloatCvt            8      0.00%     85.79% # Number of instructions issued per FU type, per thread (Count)
system.cpu0.statIssuedInstType_0::SimdFloatDiv            2      0.00%     85.79% # Number of instructions issued per FU type, per thread (Count)
system.cpu0.statIssuedInstType_0::SimdFloatMisc            0      0.00%     85.79% # Number of instructions issued per FU type, per thread (Count)
system.cpu0.statIssuedInstType_0::SimdFloatMult            0      0.00%     85.79% # Number of instructions issued per FU type, per thread (Count)
system.cpu0.statIssuedInstType_0::SimdFloatMultAcc            0      0.00%     85.79% # Number of instructions issued per FU type, per thread (Count)
system.cpu0.statIssuedInstType_0::SimdFloatSqrt            0      0.00%     85.79% # Number of instructions issued per FU type, per thread (Count)
system.cpu0.statIssuedInstType_0::SimdReduceAdd            0      0.00%     85.79% # Number of instructions issued per FU type, per thread (Count)
system.cpu0.statIssuedInstType_0::SimdReduceAlu            0      0.00%     85.79% # Number of instructions issued per FU type, per thread (Count)
system.cpu0.statIssuedInstType_0::SimdReduceCmp            0      0.00%     85.79% # Number of instructions issued per FU type, per thread (Count)
system.cpu0.statIssuedInstType_0::SimdFloatReduceAdd            0      0.00%     85.79% # Number of instructions issued per FU type, per thread (Count)
system.cpu0.statIssuedInstType_0::SimdFloatReduceCmp            0      0.00%     85.79% # Number of instructions issued per FU type, per thread (Count)
system.cpu0.statIssuedInstType_0::SimdAes            0      0.00%     85.79% # Number of instructions issued per FU type, per thread (Count)
system.cpu0.statIssuedInstType_0::SimdAesMix            0      0.00%     85.79% # Number of instructions issued per FU type, per thread (Count)
system.cpu0.statIssuedInstType_0::SimdSha1Hash            0      0.00%     85.79% # Number of instructions issued per FU type, per thread (Count)
system.cpu0.statIssuedInstType_0::SimdSha1Hash2            0      0.00%     85.79% # Number of instructions issued per FU type, per thread (Count)
system.cpu0.statIssuedInstType_0::SimdSha256Hash            0      0.00%     85.79% # Number of instructions issued per FU type, per thread (Count)
system.cpu0.statIssuedInstType_0::SimdSha256Hash2            0      0.00%     85.79% # Number of instructions issued per FU type, per thread (Count)
system.cpu0.statIssuedInstType_0::SimdShaSigma2            0      0.00%     85.79% # Number of instructions issued per FU type, per thread (Count)
system.cpu0.statIssuedInstType_0::SimdShaSigma3            0      0.00%     85.79% # Number of instructions issued per FU type, per thread (Count)
system.cpu0.statIssuedInstType_0::SimdPredAlu            0      0.00%     85.79% # Number of instructions issued per FU type, per thread (Count)
system.cpu0.statIssuedInstType_0::MemRead      2858329     10.13%     95.92% # Number of instructions issued per FU type, per thread (Count)
system.cpu0.statIssuedInstType_0::MemWrite      1108779      3.93%     99.85% # Number of instructions issued per FU type, per thread (Count)
system.cpu0.statIssuedInstType_0::FloatMemRead        25451      0.09%     99.94% # Number of instructions issued per FU type, per thread (Count)
system.cpu0.statIssuedInstType_0::FloatMemWrite        17761      0.06%    100.00% # Number of instructions issued per FU type, per thread (Count)
system.cpu0.statIssuedInstType_0::IprAccess            0      0.00%    100.00% # Number of instructions issued per FU type, per thread (Count)
system.cpu0.statIssuedInstType_0::InstPrefetch            0      0.00%    100.00% # Number of instructions issued per FU type, per thread (Count)
system.cpu0.statIssuedInstType_0::total      28213247                       # Number of instructions issued per FU type, per thread (Count)
system.cpu0.issueRate                        1.876784                       # Inst issue rate ((Count/Cycle))
system.cpu0.fuBusy                            1282106                       # FU busy when requested (Count)
system.cpu0.fuBusyRate                       0.045443                       # FU busy rate (busy events/executed inst) ((Count/Count))
system.cpu0.intInstQueueReads                72304416                       # Number of integer instruction queue reads (Count)
system.cpu0.intInstQueueWrites               34537859                       # Number of integer instruction queue writes (Count)
system.cpu0.intInstQueueWakeupAccesses       27822868                       # Number of integer instruction queue wakeup accesses (Count)
system.cpu0.fpInstQueueReads                   235232                       # Number of floating instruction queue reads (Count)
system.cpu0.fpInstQueueWrites                  161206                       # Number of floating instruction queue writes (Count)
system.cpu0.fpInstQueueWakeupAccesses          113003                       # Number of floating instruction queue wakeup accesses (Count)
system.cpu0.vecInstQueueReads                       0                       # Number of vector instruction queue reads (Count)
system.cpu0.vecInstQueueWrites                      0                       # Number of vector instruction queue writes (Count)
system.cpu0.vecInstQueueWakeupAccesses              0                       # Number of vector instruction queue wakeup accesses (Count)
system.cpu0.intAluAccesses                   29270229                       # Number of integer alu accesses (Count)
system.cpu0.fpAluAccesses                      118617                       # Number of floating point alu accesses (Count)
system.cpu0.vecAluAccesses                          0                       # Number of vector alu accesses (Count)
system.cpu0.numInsts                         28073377                       # Number of executed instructions (Count)
system.cpu0.numLoadInsts                      2846415                       # Number of load instructions executed (Count)
system.cpu0.numSquashedInsts                   139870                       # Number of squashed instructions skipped in execute (Count)
system.cpu0.numSwp                                  0                       # Number of swp insts executed (Count)
system.cpu0.numNop                                  0                       # Number of nop insts executed (Count)
system.cpu0.numRefs                           3962841                       # Number of memory reference insts executed (Count)
system.cpu0.numBranches                       3388293                       # Number of branches executed (Count)
system.cpu0.numStoreInsts                     1116426                       # Number of stores executed (Count)
system.cpu0.numRate                          1.867480                       # Inst execution rate ((Count/Cycle))
system.cpu0.timesIdled                           2439                       # Number of times that the entire CPU went into an idle state and unscheduled itself (Count)
system.cpu0.idleCycles                         312899                       # Total number of cycles that the CPU has spent unscheduled due to idling (Cycle)
system.cpu0.committedInsts                   13093582                       # Number of Instructions Simulated (Count)
system.cpu0.committedOps                     24988184                       # Number of Ops (including micro ops) Simulated (Count)
system.cpu0.cpi                              1.148101                       # CPI: Cycles Per Instruction ((Cycle/Count))
system.cpu0.totalCpi                         1.148101                       # CPI: Total CPI of All Threads ((Cycle/Count))
system.cpu0.ipc                              0.871003                       # IPC: Instructions Per Cycle ((Count/Cycle))
system.cpu0.totalIpc                         0.871003                       # IPC: Total IPC of All Threads ((Count/Cycle))
system.cpu0.intRegfileReads                  39949294                       # Number of integer regfile reads (Count)
system.cpu0.intRegfileWrites                 23456955                       # Number of integer regfile writes (Count)
system.cpu0.fpRegfileReads                     153175                       # Number of floating regfile reads (Count)
system.cpu0.fpRegfileWrites                     85234                       # Number of floating regfile writes (Count)
system.cpu0.ccRegfileReads                   19129306                       # number of cc regfile reads (Count)
system.cpu0.ccRegfileWrites                  12181116                       # number of cc regfile writes (Count)
system.cpu0.miscRegfileReads                 11051901                       # number of misc regfile reads (Count)
system.cpu0.miscRegfileWrites                    1296                       # number of misc regfile writes (Count)
system.cpu0.MemDepUnit__0.insertedLoads       3067013                       # Number of loads inserted to the mem dependence unit. (Count)
system.cpu0.MemDepUnit__0.insertedStores      1216979                       # Number of stores inserted to the mem dependence unit. (Count)
system.cpu0.MemDepUnit__0.conflictingLoads       230232                       # Number of conflicting loads. (Count)
system.cpu0.MemDepUnit__0.conflictingStores        70629                       # Number of conflicting stores. (Count)
system.cpu0.MemDepUnit__1.insertedLoads             0                       # Number of loads inserted to the mem dependence unit. (Count)
system.cpu0.MemDepUnit__1.insertedStores            0                       # Number of stores inserted to the mem dependence unit. (Count)
system.cpu0.MemDepUnit__1.conflictingLoads            0                       # Number of conflicting loads. (Count)
system.cpu0.MemDepUnit__1.conflictingStores            0                       # Number of conflicting stores. (Count)
system.cpu0.MemDepUnit__2.insertedLoads             0                       # Number of loads inserted to the mem dependence unit. (Count)
system.cpu0.MemDepUnit__2.insertedStores            0                       # Number of stores inserted to the mem dependence unit. (Count)
system.cpu0.MemDepUnit__2.conflictingLoads            0                       # Number of conflicting loads. (Count)
system.cpu0.MemDepUnit__2.conflictingStores            0                       # Number of conflicting stores. (Count)
system.cpu0.MemDepUnit__3.insertedLoads             0                       # Number of loads inserted to the mem dependence unit. (Count)
system.cpu0.MemDepUnit__3.insertedStores            0                       # Number of stores inserted to the mem dependence unit. (Count)
system.cpu0.MemDepUnit__3.conflictingLoads            0                       # Number of conflicting loads. (Count)
system.cpu0.MemDepUnit__3.conflictingStores            0                       # Number of conflicting stores. (Count)
system.cpu0.branchPred.lookups                3995559                       # Number of BP lookups (Count)
system.cpu0.branchPred.condPredicted          3718146                       # Number of conditional branches predicted (Count)
system.cpu0.branchPred.condIncorrect            83149                       # Number of conditional branches incorrect (Count)
system.cpu0.branchPred.BTBLookups             2402875                       # Number of BTB lookups (Count)
system.cpu0.branchPred.BTBHits                2398058                       # Number of BTB hits (Count)
system.cpu0.branchPred.BTBHitRatio           0.997995                       # BTB Hit Ratio (Ratio)
system.cpu0.branchPred.RASUsed                  49580                       # Number of times the RAS was used to get a target. (Count)
system.cpu0.branchPred.RASIncorrect                25                       # Number of incorrect RAS predictions. (Count)
system.cpu0.branchPred.indirectLookups          47988                       # Number of indirect predictor lookups. (Count)
system.cpu0.branchPred.indirectHits             38750                       # Number of indirect target hits. (Count)
system.cpu0.branchPred.indirectMisses            9238                       # Number of indirect misses. (Count)
system.cpu0.branchPred.indirectMispredicted         1668                       # Number of mispredicted indirect branches. (Count)
system.cpu0.commit.commitSquashedInsts        4851868                       # The number of squashed insts skipped by commit (Count)
system.cpu0.commit.commitNonSpecStalls          29160                       # The number of times commit has been forced to stall to communicate backwards (Count)
system.cpu0.commit.branchMispredicts            83052                       # The number of times a branch was mispredicted (Count)
system.cpu0.commit.numCommittedDist::samples     14041848                       # Number of insts commited each cycle (Count)
system.cpu0.commit.numCommittedDist::mean     1.779551                       # Number of insts commited each cycle (Count)
system.cpu0.commit.numCommittedDist::stdev     2.883344                       # Number of insts commited each cycle (Count)
system.cpu0.commit.numCommittedDist::underflows            0      0.00%      0.00% # Number of insts commited each cycle (Count)
system.cpu0.commit.numCommittedDist::0        8870061     63.17%     63.17% # Number of insts commited each cycle (Count)
system.cpu0.commit.numCommittedDist::1         955299      6.80%     69.97% # Number of insts commited each cycle (Count)
system.cpu0.commit.numCommittedDist::2         328470      2.34%     72.31% # Number of insts commited each cycle (Count)
system.cpu0.commit.numCommittedDist::3        1022451      7.28%     79.59% # Number of insts commited each cycle (Count)
system.cpu0.commit.numCommittedDist::4         274125      1.95%     81.54% # Number of insts commited each cycle (Count)
system.cpu0.commit.numCommittedDist::5         312281      2.22%     83.77% # Number of insts commited each cycle (Count)
system.cpu0.commit.numCommittedDist::6         207738      1.48%     85.25% # Number of insts commited each cycle (Count)
system.cpu0.commit.numCommittedDist::7         167125      1.19%     86.44% # Number of insts commited each cycle (Count)
system.cpu0.commit.numCommittedDist::8        1904298     13.56%    100.00% # Number of insts commited each cycle (Count)
system.cpu0.commit.numCommittedDist::overflows            0      0.00%    100.00% # Number of insts commited each cycle (Count)
system.cpu0.commit.numCommittedDist::min_value            0                       # Number of insts commited each cycle (Count)
system.cpu0.commit.numCommittedDist::max_value            8                       # Number of insts commited each cycle (Count)
system.cpu0.commit.numCommittedDist::total     14041848                       # Number of insts commited each cycle (Count)
system.cpu0.commit.instsCommitted            13093582                       # Number of instructions committed (Count)
system.cpu0.commit.opsCommitted              24988184                       # Number of ops (including micro ops) committed (Count)
system.cpu0.commit.memRefs                    3436572                       # Number of memory references committed (Count)
system.cpu0.commit.loads                      2425878                       # Number of loads committed (Count)
system.cpu0.commit.amos                             0                       # Number of atomic instructions committed (Count)
system.cpu0.commit.membars                      18576                       # Number of memory barriers committed (Count)
system.cpu0.commit.branches                   3174458                       # Number of branches committed (Count)
system.cpu0.commit.vectorInstructions               0                       # Number of committed Vector instructions. (Count)
system.cpu0.commit.floating                     96484                       # Number of committed floating point instructions. (Count)
system.cpu0.commit.integer                   24822985                       # Number of committed integer instructions. (Count)
system.cpu0.commit.functionCalls                44857                       # Number of function calls committed. (Count)
system.cpu0.commit.committedInstType_0::No_OpClass        87208      0.35%      0.35% # Class of committed instruction (Count)
system.cpu0.commit.committedInstType_0::IntAlu     21248408     85.03%     85.38% # Class of committed instruction (Count)
system.cpu0.commit.committedInstType_0::IntMult       120804      0.48%     85.87% # Class of committed instruction (Count)
system.cpu0.commit.committedInstType_0::IntDiv        37798      0.15%     86.02% # Class of committed instruction (Count)
system.cpu0.commit.committedInstType_0::FloatAdd         6363      0.03%     86.04% # Class of committed instruction (Count)
system.cpu0.commit.committedInstType_0::FloatCmp            0      0.00%     86.04% # Class of committed instruction (Count)
system.cpu0.commit.committedInstType_0::FloatCvt         2304      0.01%     86.05% # Class of committed instruction (Count)
system.cpu0.commit.committedInstType_0::FloatMult            0      0.00%     86.05% # Class of committed instruction (Count)
system.cpu0.commit.committedInstType_0::FloatMultAcc            0      0.00%     86.05% # Class of committed instruction (Count)
system.cpu0.commit.committedInstType_0::FloatDiv            0      0.00%     86.05% # Class of committed instruction (Count)
system.cpu0.commit.committedInstType_0::FloatMisc            0      0.00%     86.05% # Class of committed instruction (Count)
system.cpu0.commit.committedInstType_0::FloatSqrt            0      0.00%     86.05% # Class of committed instruction (Count)
system.cpu0.commit.committedInstType_0::SimdAdd         7130      0.03%     86.08% # Class of committed instruction (Count)
system.cpu0.commit.committedInstType_0::SimdAddAcc            0      0.00%     86.08% # Class of committed instruction (Count)
system.cpu0.commit.committedInstType_0::SimdAlu        13046      0.05%     86.13% # Class of committed instruction (Count)
system.cpu0.commit.committedInstType_0::SimdCmp            6      0.00%     86.13% # Class of committed instruction (Count)
system.cpu0.commit.committedInstType_0::SimdCvt        14648      0.06%     86.19% # Class of committed instruction (Count)
system.cpu0.commit.committedInstType_0::SimdMisc        12815      0.05%     86.24% # Class of committed instruction (Count)
system.cpu0.commit.committedInstType_0::SimdMult            0      0.00%     86.24% # Class of committed instruction (Count)
system.cpu0.commit.committedInstType_0::SimdMultAcc            0      0.00%     86.24% # Class of committed instruction (Count)
system.cpu0.commit.committedInstType_0::SimdShift         1070      0.00%     86.25% # Class of committed instruction (Count)
system.cpu0.commit.committedInstType_0::SimdShiftAcc            0      0.00%     86.25% # Class of committed instruction (Count)
system.cpu0.commit.committedInstType_0::SimdDiv            0      0.00%     86.25% # Class of committed instruction (Count)
system.cpu0.commit.committedInstType_0::SimdSqrt            0      0.00%     86.25% # Class of committed instruction (Count)
system.cpu0.commit.committedInstType_0::SimdFloatAdd            4      0.00%     86.25% # Class of committed instruction (Count)
system.cpu0.commit.committedInstType_0::SimdFloatAlu            0      0.00%     86.25% # Class of committed instruction (Count)
system.cpu0.commit.committedInstType_0::SimdFloatCmp            0      0.00%     86.25% # Class of committed instruction (Count)
system.cpu0.commit.committedInstType_0::SimdFloatCvt            6      0.00%     86.25% # Class of committed instruction (Count)
system.cpu0.commit.committedInstType_0::SimdFloatDiv            2      0.00%     86.25% # Class of committed instruction (Count)
system.cpu0.commit.committedInstType_0::SimdFloatMisc            0      0.00%     86.25% # Class of committed instruction (Count)
system.cpu0.commit.committedInstType_0::SimdFloatMult            0      0.00%     86.25% # Class of committed instruction (Count)
system.cpu0.commit.committedInstType_0::SimdFloatMultAcc            0      0.00%     86.25% # Class of committed instruction (Count)
system.cpu0.commit.committedInstType_0::SimdFloatSqrt            0      0.00%     86.25% # Class of committed instruction (Count)
system.cpu0.commit.committedInstType_0::SimdReduceAdd            0      0.00%     86.25% # Class of committed instruction (Count)
system.cpu0.commit.committedInstType_0::SimdReduceAlu            0      0.00%     86.25% # Class of committed instruction (Count)
system.cpu0.commit.committedInstType_0::SimdReduceCmp            0      0.00%     86.25% # Class of committed instruction (Count)
system.cpu0.commit.committedInstType_0::SimdFloatReduceAdd            0      0.00%     86.25% # Class of committed instruction (Count)
system.cpu0.commit.committedInstType_0::SimdFloatReduceCmp            0      0.00%     86.25% # Class of committed instruction (Count)
system.cpu0.commit.committedInstType_0::SimdAes            0      0.00%     86.25% # Class of committed instruction (Count)
system.cpu0.commit.committedInstType_0::SimdAesMix            0      0.00%     86.25% # Class of committed instruction (Count)
system.cpu0.commit.committedInstType_0::SimdSha1Hash            0      0.00%     86.25% # Class of committed instruction (Count)
system.cpu0.commit.committedInstType_0::SimdSha1Hash2            0      0.00%     86.25% # Class of committed instruction (Count)
system.cpu0.commit.committedInstType_0::SimdSha256Hash            0      0.00%     86.25% # Class of committed instruction (Count)
system.cpu0.commit.committedInstType_0::SimdSha256Hash2            0      0.00%     86.25% # Class of committed instruction (Count)
system.cpu0.commit.committedInstType_0::SimdShaSigma2            0      0.00%     86.25% # Class of committed instruction (Count)
system.cpu0.commit.committedInstType_0::SimdShaSigma3            0      0.00%     86.25% # Class of committed instruction (Count)
system.cpu0.commit.committedInstType_0::SimdPredAlu            0      0.00%     86.25% # Class of committed instruction (Count)
system.cpu0.commit.committedInstType_0::MemRead      2405791      9.63%     95.87% # Class of committed instruction (Count)
system.cpu0.commit.committedInstType_0::MemWrite       994703      3.98%     99.86% # Class of committed instruction (Count)
system.cpu0.commit.committedInstType_0::FloatMemRead        20087      0.08%     99.94% # Class of committed instruction (Count)
system.cpu0.commit.committedInstType_0::FloatMemWrite        15991      0.06%    100.00% # Class of committed instruction (Count)
system.cpu0.commit.committedInstType_0::IprAccess            0      0.00%    100.00% # Class of committed instruction (Count)
system.cpu0.commit.committedInstType_0::InstPrefetch            0      0.00%    100.00% # Class of committed instruction (Count)
system.cpu0.commit.committedInstType_0::total     24988184                       # Class of committed instruction (Count)
system.cpu0.commit.commitEligibleSamples      1904298                       # number cycles where commit BW limit reached (Cycle)
system.cpu0.dcache.demandHits::cpu0.data      3290611                       # number of demand (read+write) hits (Count)
system.cpu0.dcache.demandHits::total          3290611                       # number of demand (read+write) hits (Count)
system.cpu0.dcache.overallHits::cpu0.data      3290611                       # number of overall hits (Count)
system.cpu0.dcache.overallHits::total         3290611                       # number of overall hits (Count)
system.cpu0.dcache.demandMisses::cpu0.data       430161                       # number of demand (read+write) misses (Count)
system.cpu0.dcache.demandMisses::total         430161                       # number of demand (read+write) misses (Count)
system.cpu0.dcache.overallMisses::cpu0.data       430161                       # number of overall misses (Count)
system.cpu0.dcache.overallMisses::total        430161                       # number of overall misses (Count)
system.cpu0.dcache.demandMissLatency::cpu0.data  24211780934                       # number of demand (read+write) miss ticks (Tick)
system.cpu0.dcache.demandMissLatency::total  24211780934                       # number of demand (read+write) miss ticks (Tick)
system.cpu0.dcache.overallMissLatency::cpu0.data  24211780934                       # number of overall miss ticks (Tick)
system.cpu0.dcache.overallMissLatency::total  24211780934                       # number of overall miss ticks (Tick)
system.cpu0.dcache.demandAccesses::cpu0.data      3720772                       # number of demand (read+write) accesses (Count)
system.cpu0.dcache.demandAccesses::total      3720772                       # number of demand (read+write) accesses (Count)
system.cpu0.dcache.overallAccesses::cpu0.data      3720772                       # number of overall (read+write) accesses (Count)
system.cpu0.dcache.overallAccesses::total      3720772                       # number of overall (read+write) accesses (Count)
system.cpu0.dcache.demandMissRate::cpu0.data     0.115611                       # miss rate for demand accesses (Ratio)
system.cpu0.dcache.demandMissRate::total     0.115611                       # miss rate for demand accesses (Ratio)
system.cpu0.dcache.overallMissRate::cpu0.data     0.115611                       # miss rate for overall accesses (Ratio)
system.cpu0.dcache.overallMissRate::total     0.115611                       # miss rate for overall accesses (Ratio)
system.cpu0.dcache.demandAvgMissLatency::cpu0.data 56285.392990                       # average overall miss latency ((Cycle/Count))
system.cpu0.dcache.demandAvgMissLatency::total 56285.392990                       # average overall miss latency ((Cycle/Count))
system.cpu0.dcache.overallAvgMissLatency::cpu0.data 56285.392990                       # average overall miss latency ((Cycle/Count))
system.cpu0.dcache.overallAvgMissLatency::total 56285.392990                       # average overall miss latency ((Cycle/Count))
system.cpu0.dcache.blockedCycles::no_mshrs       188203                       # number of cycles access was blocked (Cycle)
system.cpu0.dcache.blockedCycles::no_targets         8504                       # number of cycles access was blocked (Cycle)
system.cpu0.dcache.blockedCauses::no_mshrs        11744                       # number of times access was blocked (Count)
system.cpu0.dcache.blockedCauses::no_targets          130                       # number of times access was blocked (Count)
system.cpu0.dcache.avgBlocked::no_mshrs     16.025460                       # average number of cycles each access was blocked ((Cycle/Count))
system.cpu0.dcache.avgBlocked::no_targets    65.415385                       # average number of cycles each access was blocked ((Cycle/Count))
system.cpu0.dcache.writebacks::writebacks        70929                       # number of writebacks (Count)
system.cpu0.dcache.writebacks::total            70929                       # number of writebacks (Count)
system.cpu0.dcache.demandMshrHits::cpu0.data       296991                       # number of demand (read+write) MSHR hits (Count)
system.cpu0.dcache.demandMshrHits::total       296991                       # number of demand (read+write) MSHR hits (Count)
system.cpu0.dcache.overallMshrHits::cpu0.data       296991                       # number of overall MSHR hits (Count)
system.cpu0.dcache.overallMshrHits::total       296991                       # number of overall MSHR hits (Count)
system.cpu0.dcache.demandMshrMisses::cpu0.data       133170                       # number of demand (read+write) MSHR misses (Count)
system.cpu0.dcache.demandMshrMisses::total       133170                       # number of demand (read+write) MSHR misses (Count)
system.cpu0.dcache.overallMshrMisses::cpu0.data       133170                       # number of overall MSHR misses (Count)
system.cpu0.dcache.overallMshrMisses::total       133170                       # number of overall MSHR misses (Count)
system.cpu0.dcache.demandMshrMissLatency::cpu0.data   7087183434                       # number of demand (read+write) MSHR miss ticks (Tick)
system.cpu0.dcache.demandMshrMissLatency::total   7087183434                       # number of demand (read+write) MSHR miss ticks (Tick)
system.cpu0.dcache.overallMshrMissLatency::cpu0.data   7087183434                       # number of overall MSHR miss ticks (Tick)
system.cpu0.dcache.overallMshrMissLatency::total   7087183434                       # number of overall MSHR miss ticks (Tick)
system.cpu0.dcache.demandMshrMissRate::cpu0.data     0.035791                       # mshr miss ratio for demand accesses (Ratio)
system.cpu0.dcache.demandMshrMissRate::total     0.035791                       # mshr miss ratio for demand accesses (Ratio)
system.cpu0.dcache.overallMshrMissRate::cpu0.data     0.035791                       # mshr miss ratio for overall accesses (Ratio)
system.cpu0.dcache.overallMshrMissRate::total     0.035791                       # mshr miss ratio for overall accesses (Ratio)
system.cpu0.dcache.demandAvgMshrMissLatency::cpu0.data 53219.069115                       # average overall mshr miss latency ((Cycle/Count))
system.cpu0.dcache.demandAvgMshrMissLatency::total 53219.069115                       # average overall mshr miss latency ((Cycle/Count))
system.cpu0.dcache.overallAvgMshrMissLatency::cpu0.data 53219.069115                       # average overall mshr miss latency ((Cycle/Count))
system.cpu0.dcache.overallAvgMshrMissLatency::total 53219.069115                       # average overall mshr miss latency ((Cycle/Count))
system.cpu0.dcache.replacements                125695                       # number of replacements (Count)
system.cpu0.dcache.ReadReq.hits::cpu0.data      2312936                       # number of ReadReq hits (Count)
system.cpu0.dcache.ReadReq.hits::total        2312936                       # number of ReadReq hits (Count)
system.cpu0.dcache.ReadReq.misses::cpu0.data       397129                       # number of ReadReq misses (Count)
system.cpu0.dcache.ReadReq.misses::total       397129                       # number of ReadReq misses (Count)
system.cpu0.dcache.ReadReq.missLatency::cpu0.data  21978056000                       # number of ReadReq miss ticks (Tick)
system.cpu0.dcache.ReadReq.missLatency::total  21978056000                       # number of ReadReq miss ticks (Tick)
system.cpu0.dcache.ReadReq.accesses::cpu0.data      2710065                       # number of ReadReq accesses(hits+misses) (Count)
system.cpu0.dcache.ReadReq.accesses::total      2710065                       # number of ReadReq accesses(hits+misses) (Count)
system.cpu0.dcache.ReadReq.missRate::cpu0.data     0.146539                       # miss rate for ReadReq accesses (Ratio)
system.cpu0.dcache.ReadReq.missRate::total     0.146539                       # miss rate for ReadReq accesses (Ratio)
system.cpu0.dcache.ReadReq.avgMissLatency::cpu0.data 55342.359787                       # average ReadReq miss latency ((Tick/Count))
system.cpu0.dcache.ReadReq.avgMissLatency::total 55342.359787                       # average ReadReq miss latency ((Tick/Count))
system.cpu0.dcache.ReadReq.mshrHits::cpu0.data       296967                       # number of ReadReq MSHR hits (Count)
system.cpu0.dcache.ReadReq.mshrHits::total       296967                       # number of ReadReq MSHR hits (Count)
system.cpu0.dcache.ReadReq.mshrMisses::cpu0.data       100162                       # number of ReadReq MSHR misses (Count)
system.cpu0.dcache.ReadReq.mshrMisses::total       100162                       # number of ReadReq MSHR misses (Count)
system.cpu0.dcache.ReadReq.mshrMissLatency::cpu0.data   4887071000                       # number of ReadReq MSHR miss ticks (Tick)
system.cpu0.dcache.ReadReq.mshrMissLatency::total   4887071000                       # number of ReadReq MSHR miss ticks (Tick)
system.cpu0.dcache.ReadReq.mshrMissRate::cpu0.data     0.036959                       # mshr miss rate for ReadReq accesses (Ratio)
system.cpu0.dcache.ReadReq.mshrMissRate::total     0.036959                       # mshr miss rate for ReadReq accesses (Ratio)
system.cpu0.dcache.ReadReq.avgMshrMissLatency::cpu0.data 48791.667499                       # average ReadReq mshr miss latency ((Tick/Count))
system.cpu0.dcache.ReadReq.avgMshrMissLatency::total 48791.667499                       # average ReadReq mshr miss latency ((Tick/Count))
system.cpu0.dcache.WriteReq.hits::cpu0.data       977675                       # number of WriteReq hits (Count)
system.cpu0.dcache.WriteReq.hits::total        977675                       # number of WriteReq hits (Count)
system.cpu0.dcache.WriteReq.misses::cpu0.data        33032                       # number of WriteReq misses (Count)
system.cpu0.dcache.WriteReq.misses::total        33032                       # number of WriteReq misses (Count)
system.cpu0.dcache.WriteReq.missLatency::cpu0.data   2233724934                       # number of WriteReq miss ticks (Tick)
system.cpu0.dcache.WriteReq.missLatency::total   2233724934                       # number of WriteReq miss ticks (Tick)
system.cpu0.dcache.WriteReq.accesses::cpu0.data      1010707                       # number of WriteReq accesses(hits+misses) (Count)
system.cpu0.dcache.WriteReq.accesses::total      1010707                       # number of WriteReq accesses(hits+misses) (Count)
system.cpu0.dcache.WriteReq.missRate::cpu0.data     0.032682                       # miss rate for WriteReq accesses (Ratio)
system.cpu0.dcache.WriteReq.missRate::total     0.032682                       # miss rate for WriteReq accesses (Ratio)
system.cpu0.dcache.WriteReq.avgMissLatency::cpu0.data 67623.060487                       # average WriteReq miss latency ((Tick/Count))
system.cpu0.dcache.WriteReq.avgMissLatency::total 67623.060487                       # average WriteReq miss latency ((Tick/Count))
system.cpu0.dcache.WriteReq.mshrHits::cpu0.data           24                       # number of WriteReq MSHR hits (Count)
system.cpu0.dcache.WriteReq.mshrHits::total           24                       # number of WriteReq MSHR hits (Count)
system.cpu0.dcache.WriteReq.mshrMisses::cpu0.data        33008                       # number of WriteReq MSHR misses (Count)
system.cpu0.dcache.WriteReq.mshrMisses::total        33008                       # number of WriteReq MSHR misses (Count)
system.cpu0.dcache.WriteReq.mshrMissLatency::cpu0.data   2200112434                       # number of WriteReq MSHR miss ticks (Tick)
system.cpu0.dcache.WriteReq.mshrMissLatency::total   2200112434                       # number of WriteReq MSHR miss ticks (Tick)
system.cpu0.dcache.WriteReq.mshrMissRate::cpu0.data     0.032658                       # mshr miss rate for WriteReq accesses (Ratio)
system.cpu0.dcache.WriteReq.mshrMissRate::total     0.032658                       # mshr miss rate for WriteReq accesses (Ratio)
system.cpu0.dcache.WriteReq.avgMshrMissLatency::cpu0.data 66653.915233                       # average WriteReq mshr miss latency ((Tick/Count))
system.cpu0.dcache.WriteReq.avgMshrMissLatency::total 66653.915233                       # average WriteReq mshr miss latency ((Tick/Count))
system.cpu0.dcache.power_state.pwrStateResidencyTicks::UNDEFINED   7516380000                       # Cumulative time (in ticks) in various power states (Tick)
system.cpu0.dcache.tags.tagsInUse          506.866107                       # Average ticks per tags in use ((Tick/Count))
system.cpu0.dcache.tags.totalRefs             3425371                       # Total number of references to valid blocks. (Count)
system.cpu0.dcache.tags.sampledRefs            126207                       # Sample count of references to valid blocks. (Count)
system.cpu0.dcache.tags.avgRefs             27.140896                       # Average number of references to valid blocks. ((Count/Count))
system.cpu0.dcache.tags.warmupTick             198000                       # The tick when the warmup percentage was hit. (Tick)
system.cpu0.dcache.tags.occupancies::cpu0.data   506.866107                       # Average occupied blocks per tick, per requestor ((Count/Tick))
system.cpu0.dcache.tags.avgOccs::cpu0.data     0.989973                       # Average percentage of cache occupancy ((Ratio/Tick))
system.cpu0.dcache.tags.avgOccs::total       0.989973                       # Average percentage of cache occupancy ((Ratio/Tick))
system.cpu0.dcache.tags.occupanciesTaskId::1024          512                       # Occupied blocks per task id (Count)
system.cpu0.dcache.tags.ageTaskId_1024::0           84                       # Occupied blocks per task id, per block age (Count)
system.cpu0.dcache.tags.ageTaskId_1024::1          316                       # Occupied blocks per task id, per block age (Count)
system.cpu0.dcache.tags.ageTaskId_1024::2           71                       # Occupied blocks per task id, per block age (Count)
system.cpu0.dcache.tags.ageTaskId_1024::3           41                       # Occupied blocks per task id, per block age (Count)
system.cpu0.dcache.tags.ratioOccsTaskId::1024            1                       # Ratio of occupied blocks and all blocks, per task id (Ratio)
system.cpu0.dcache.tags.tagAccesses           7567751                       # Number of tag accesses (Count)
system.cpu0.dcache.tags.dataAccesses          7567751                       # Number of data accesses (Count)
system.cpu0.dcache.tags.power_state.pwrStateResidencyTicks::UNDEFINED   7516380000                       # Cumulative time (in ticks) in various power states (Tick)
system.cpu0.decode.idleCycles                 1367269                       # Number of cycles decode is idle (Cycle)
system.cpu0.decode.blockedCycles              8571927                       # Number of cycles decode is blocked (Cycle)
system.cpu0.decode.runCycles                  4157864                       # Number of cycles decode is running (Cycle)
system.cpu0.decode.unblockCycles               538900                       # Number of cycles decode is unblocking (Cycle)
system.cpu0.decode.squashCycles                 83902                       # Number of cycles decode is squashing (Cycle)
system.cpu0.decode.branchResolved             2300830                       # Number of times decode resolved a branch (Count)
system.cpu0.decode.branchMispred                 1562                       # Number of times decode detected a branch misprediction (Count)
system.cpu0.decode.decodedInsts              31044922                       # Number of instructions handled by decode (Count)
system.cpu0.decode.squashedInsts                 7281                       # Number of squashed instructions handled by decode (Count)
system.cpu0.dtb_walker_cache.blockedCycles::no_mshrs            0                       # number of cycles access was blocked (Cycle)
system.cpu0.dtb_walker_cache.blockedCycles::no_targets            0                       # number of cycles access was blocked (Cycle)
system.cpu0.dtb_walker_cache.blockedCauses::no_mshrs            0                       # number of times access was blocked (Count)
system.cpu0.dtb_walker_cache.blockedCauses::no_targets            0                       # number of times access was blocked (Count)
system.cpu0.dtb_walker_cache.avgBlocked::no_mshrs          nan                       # average number of cycles each access was blocked ((Cycle/Count))
system.cpu0.dtb_walker_cache.avgBlocked::no_targets          nan                       # average number of cycles each access was blocked ((Cycle/Count))
system.cpu0.dtb_walker_cache.replacements            0                       # number of replacements (Count)
system.cpu0.dtb_walker_cache.power_state.pwrStateResidencyTicks::UNDEFINED   7516380000                       # Cumulative time (in ticks) in various power states (Tick)
system.cpu0.dtb_walker_cache.tags.tagsInUse            0                       # Average ticks per tags in use ((Tick/Count))
system.cpu0.dtb_walker_cache.tags.totalRefs            0                       # Total number of references to valid blocks. (Count)
system.cpu0.dtb_walker_cache.tags.sampledRefs            0                       # Sample count of references to valid blocks. (Count)
system.cpu0.dtb_walker_cache.tags.avgRefs          nan                       # Average number of references to valid blocks. ((Count/Count))
system.cpu0.dtb_walker_cache.tags.warmupTick            0                       # The tick when the warmup percentage was hit. (Tick)
system.cpu0.dtb_walker_cache.tags.tagAccesses            0                       # Number of tag accesses (Count)
system.cpu0.dtb_walker_cache.tags.dataAccesses            0                       # Number of data accesses (Count)
system.cpu0.dtb_walker_cache.tags.power_state.pwrStateResidencyTicks::UNDEFINED   7516380000                       # Cumulative time (in ticks) in various power states (Tick)
system.cpu0.fetch.icacheStallCycles           1376508                       # Number of cycles fetch is stalled on an Icache miss (Cycle)
system.cpu0.fetch.insts                      17246637                       # Number of instructions fetch has processed (Count)
system.cpu0.fetch.branches                    3995559                       # Number of branches that fetch encountered (Count)
system.cpu0.fetch.predictedBranches           2486388                       # Number of branches that fetch has predicted taken (Count)
system.cpu0.fetch.cycles                     13246434                       # Number of cycles fetch has run and was not squashing or blocked (Cycle)
system.cpu0.fetch.squashCycles                 170844                       # Number of cycles fetch has spent squashing (Cycle)
system.cpu0.fetch.miscStallCycles                1539                       # Number of cycles fetch has spent waiting on interrupts, or bad addresses, or out of MSHRs (Cycle)
system.cpu0.fetch.pendingTrapStallCycles         9800                       # Number of stall cycles due to pending traps (Cycle)
system.cpu0.fetch.pendingQuiesceStallCycles           22                       # Number of stall cycles due to pending quiesce instructions (Cycle)
system.cpu0.fetch.icacheWaitRetryStallCycles          137                       # Number of stall cycles due to full MSHR (Cycle)
system.cpu0.fetch.cacheLines                  1236268                       # Number of cache lines fetched (Count)
system.cpu0.fetch.icacheSquashes                12675                       # Number of outstanding Icache misses that were squashed (Count)
system.cpu0.fetch.nisnDist::samples          14719862                       # Number of instructions fetched each cycle (Total) (Count)
system.cpu0.fetch.nisnDist::mean             2.205404                       # Number of instructions fetched each cycle (Total) (Count)
system.cpu0.fetch.nisnDist::stdev            3.223303                       # Number of instructions fetched each cycle (Total) (Count)
system.cpu0.fetch.nisnDist::underflows              0      0.00%      0.00% # Number of instructions fetched each cycle (Total) (Count)
system.cpu0.fetch.nisnDist::0                 9265753     62.95%     62.95% # Number of instructions fetched each cycle (Total) (Count)
system.cpu0.fetch.nisnDist::1                  269685      1.83%     64.78% # Number of instructions fetched each cycle (Total) (Count)
system.cpu0.fetch.nisnDist::2                  511042      3.47%     68.25% # Number of instructions fetched each cycle (Total) (Count)
system.cpu0.fetch.nisnDist::3                  531643      3.61%     71.86% # Number of instructions fetched each cycle (Total) (Count)
system.cpu0.fetch.nisnDist::4                  230128      1.56%     73.43% # Number of instructions fetched each cycle (Total) (Count)
system.cpu0.fetch.nisnDist::5                  243485      1.65%     75.08% # Number of instructions fetched each cycle (Total) (Count)
system.cpu0.fetch.nisnDist::6                  748731      5.09%     80.17% # Number of instructions fetched each cycle (Total) (Count)
system.cpu0.fetch.nisnDist::7                  408945      2.78%     82.95% # Number of instructions fetched each cycle (Total) (Count)
system.cpu0.fetch.nisnDist::8                 2510450     17.05%    100.00% # Number of instructions fetched each cycle (Total) (Count)
system.cpu0.fetch.nisnDist::overflows               0      0.00%    100.00% # Number of instructions fetched each cycle (Total) (Count)
system.cpu0.fetch.nisnDist::min_value               0                       # Number of instructions fetched each cycle (Total) (Count)
system.cpu0.fetch.nisnDist::max_value               8                       # Number of instructions fetched each cycle (Total) (Count)
system.cpu0.fetch.nisnDist::total            14719862                       # Number of instructions fetched each cycle (Total) (Count)
system.cpu0.fetch.branchRate                 0.265790                       # Number of branch fetches per cycle (Ratio)
system.cpu0.fetch.rate                       1.147270                       # Number of inst fetches per cycle ((Count/Cycle))
system.cpu0.icache.demandHits::cpu0.inst      1231601                       # number of demand (read+write) hits (Count)
system.cpu0.icache.demandHits::total          1231601                       # number of demand (read+write) hits (Count)
system.cpu0.icache.overallHits::cpu0.inst      1231601                       # number of overall hits (Count)
system.cpu0.icache.overallHits::total         1231601                       # number of overall hits (Count)
system.cpu0.icache.demandMisses::cpu0.inst         4666                       # number of demand (read+write) misses (Count)
system.cpu0.icache.demandMisses::total           4666                       # number of demand (read+write) misses (Count)
system.cpu0.icache.overallMisses::cpu0.inst         4666                       # number of overall misses (Count)
system.cpu0.icache.overallMisses::total          4666                       # number of overall misses (Count)
system.cpu0.icache.demandMissLatency::cpu0.inst    380604998                       # number of demand (read+write) miss ticks (Tick)
system.cpu0.icache.demandMissLatency::total    380604998                       # number of demand (read+write) miss ticks (Tick)
system.cpu0.icache.overallMissLatency::cpu0.inst    380604998                       # number of overall miss ticks (Tick)
system.cpu0.icache.overallMissLatency::total    380604998                       # number of overall miss ticks (Tick)
system.cpu0.icache.demandAccesses::cpu0.inst      1236267                       # number of demand (read+write) accesses (Count)
system.cpu0.icache.demandAccesses::total      1236267                       # number of demand (read+write) accesses (Count)
system.cpu0.icache.overallAccesses::cpu0.inst      1236267                       # number of overall (read+write) accesses (Count)
system.cpu0.icache.overallAccesses::total      1236267                       # number of overall (read+write) accesses (Count)
system.cpu0.icache.demandMissRate::cpu0.inst     0.003774                       # miss rate for demand accesses (Ratio)
system.cpu0.icache.demandMissRate::total     0.003774                       # miss rate for demand accesses (Ratio)
system.cpu0.icache.overallMissRate::cpu0.inst     0.003774                       # miss rate for overall accesses (Ratio)
system.cpu0.icache.overallMissRate::total     0.003774                       # miss rate for overall accesses (Ratio)
system.cpu0.icache.demandAvgMissLatency::cpu0.inst 81569.866695                       # average overall miss latency ((Cycle/Count))
system.cpu0.icache.demandAvgMissLatency::total 81569.866695                       # average overall miss latency ((Cycle/Count))
system.cpu0.icache.overallAvgMissLatency::cpu0.inst 81569.866695                       # average overall miss latency ((Cycle/Count))
system.cpu0.icache.overallAvgMissLatency::total 81569.866695                       # average overall miss latency ((Cycle/Count))
system.cpu0.icache.blockedCycles::no_mshrs         2027                       # number of cycles access was blocked (Cycle)
system.cpu0.icache.blockedCycles::no_targets            0                       # number of cycles access was blocked (Cycle)
system.cpu0.icache.blockedCauses::no_mshrs           28                       # number of times access was blocked (Count)
system.cpu0.icache.blockedCauses::no_targets            0                       # number of times access was blocked (Count)
system.cpu0.icache.avgBlocked::no_mshrs     72.392857                       # average number of cycles each access was blocked ((Cycle/Count))
system.cpu0.icache.avgBlocked::no_targets          nan                       # average number of cycles each access was blocked ((Cycle/Count))
system.cpu0.icache.writebacks::writebacks         3232                       # number of writebacks (Count)
system.cpu0.icache.writebacks::total             3232                       # number of writebacks (Count)
system.cpu0.icache.demandMshrHits::cpu0.inst          920                       # number of demand (read+write) MSHR hits (Count)
system.cpu0.icache.demandMshrHits::total          920                       # number of demand (read+write) MSHR hits (Count)
system.cpu0.icache.overallMshrHits::cpu0.inst          920                       # number of overall MSHR hits (Count)
system.cpu0.icache.overallMshrHits::total          920                       # number of overall MSHR hits (Count)
system.cpu0.icache.demandMshrMisses::cpu0.inst         3746                       # number of demand (read+write) MSHR misses (Count)
system.cpu0.icache.demandMshrMisses::total         3746                       # number of demand (read+write) MSHR misses (Count)
system.cpu0.icache.overallMshrMisses::cpu0.inst         3746                       # number of overall MSHR misses (Count)
system.cpu0.icache.overallMshrMisses::total         3746                       # number of overall MSHR misses (Count)
system.cpu0.icache.demandMshrMissLatency::cpu0.inst    308131999                       # number of demand (read+write) MSHR miss ticks (Tick)
system.cpu0.icache.demandMshrMissLatency::total    308131999                       # number of demand (read+write) MSHR miss ticks (Tick)
system.cpu0.icache.overallMshrMissLatency::cpu0.inst    308131999                       # number of overall MSHR miss ticks (Tick)
system.cpu0.icache.overallMshrMissLatency::total    308131999                       # number of overall MSHR miss ticks (Tick)
system.cpu0.icache.demandMshrMissRate::cpu0.inst     0.003030                       # mshr miss ratio for demand accesses (Ratio)
system.cpu0.icache.demandMshrMissRate::total     0.003030                       # mshr miss ratio for demand accesses (Ratio)
system.cpu0.icache.overallMshrMissRate::cpu0.inst     0.003030                       # mshr miss ratio for overall accesses (Ratio)
system.cpu0.icache.overallMshrMissRate::total     0.003030                       # mshr miss ratio for overall accesses (Ratio)
system.cpu0.icache.demandAvgMshrMissLatency::cpu0.inst 82256.273091                       # average overall mshr miss latency ((Cycle/Count))
system.cpu0.icache.demandAvgMshrMissLatency::total 82256.273091                       # average overall mshr miss latency ((Cycle/Count))
system.cpu0.icache.overallAvgMshrMissLatency::cpu0.inst 82256.273091                       # average overall mshr miss latency ((Cycle/Count))
system.cpu0.icache.overallAvgMshrMissLatency::total 82256.273091                       # average overall mshr miss latency ((Cycle/Count))
system.cpu0.icache.replacements                  3232                       # number of replacements (Count)
system.cpu0.icache.ReadReq.hits::cpu0.inst      1231601                       # number of ReadReq hits (Count)
system.cpu0.icache.ReadReq.hits::total        1231601                       # number of ReadReq hits (Count)
system.cpu0.icache.ReadReq.misses::cpu0.inst         4666                       # number of ReadReq misses (Count)
system.cpu0.icache.ReadReq.misses::total         4666                       # number of ReadReq misses (Count)
system.cpu0.icache.ReadReq.missLatency::cpu0.inst    380604998                       # number of ReadReq miss ticks (Tick)
system.cpu0.icache.ReadReq.missLatency::total    380604998                       # number of ReadReq miss ticks (Tick)
system.cpu0.icache.ReadReq.accesses::cpu0.inst      1236267                       # number of ReadReq accesses(hits+misses) (Count)
system.cpu0.icache.ReadReq.accesses::total      1236267                       # number of ReadReq accesses(hits+misses) (Count)
system.cpu0.icache.ReadReq.missRate::cpu0.inst     0.003774                       # miss rate for ReadReq accesses (Ratio)
system.cpu0.icache.ReadReq.missRate::total     0.003774                       # miss rate for ReadReq accesses (Ratio)
system.cpu0.icache.ReadReq.avgMissLatency::cpu0.inst 81569.866695                       # average ReadReq miss latency ((Tick/Count))
system.cpu0.icache.ReadReq.avgMissLatency::total 81569.866695                       # average ReadReq miss latency ((Tick/Count))
system.cpu0.icache.ReadReq.mshrHits::cpu0.inst          920                       # number of ReadReq MSHR hits (Count)
system.cpu0.icache.ReadReq.mshrHits::total          920                       # number of ReadReq MSHR hits (Count)
system.cpu0.icache.ReadReq.mshrMisses::cpu0.inst         3746                       # number of ReadReq MSHR misses (Count)
system.cpu0.icache.ReadReq.mshrMisses::total         3746                       # number of ReadReq MSHR misses (Count)
system.cpu0.icache.ReadReq.mshrMissLatency::cpu0.inst    308131999                       # number of ReadReq MSHR miss ticks (Tick)
system.cpu0.icache.ReadReq.mshrMissLatency::total    308131999                       # number of ReadReq MSHR miss ticks (Tick)
system.cpu0.icache.ReadReq.mshrMissRate::cpu0.inst     0.003030                       # mshr miss rate for ReadReq accesses (Ratio)
system.cpu0.icache.ReadReq.mshrMissRate::total     0.003030                       # mshr miss rate for ReadReq accesses (Ratio)
system.cpu0.icache.ReadReq.avgMshrMissLatency::cpu0.inst 82256.273091                       # average ReadReq mshr miss latency ((Tick/Count))
system.cpu0.icache.ReadReq.avgMshrMissLatency::total 82256.273091                       # average ReadReq mshr miss latency ((Tick/Count))
system.cpu0.icache.power_state.pwrStateResidencyTicks::UNDEFINED   7516380000                       # Cumulative time (in ticks) in various power states (Tick)
system.cpu0.icache.tags.tagsInUse          505.665824                       # Average ticks per tags in use ((Tick/Count))
system.cpu0.icache.tags.totalRefs             1235346                       # Total number of references to valid blocks. (Count)
system.cpu0.icache.tags.sampledRefs              3745                       # Sample count of references to valid blocks. (Count)
system.cpu0.icache.tags.avgRefs            329.865421                       # Average number of references to valid blocks. ((Count/Count))
system.cpu0.icache.tags.warmupTick              95000                       # The tick when the warmup percentage was hit. (Tick)
system.cpu0.icache.tags.occupancies::cpu0.inst   505.665824                       # Average occupied blocks per tick, per requestor ((Count/Tick))
system.cpu0.icache.tags.avgOccs::cpu0.inst     0.987629                       # Average percentage of cache occupancy ((Ratio/Tick))
system.cpu0.icache.tags.avgOccs::total       0.987629                       # Average percentage of cache occupancy ((Ratio/Tick))
system.cpu0.icache.tags.occupanciesTaskId::1024          512                       # Occupied blocks per task id (Count)
system.cpu0.icache.tags.ageTaskId_1024::0           94                       # Occupied blocks per task id, per block age (Count)
system.cpu0.icache.tags.ageTaskId_1024::1          312                       # Occupied blocks per task id, per block age (Count)
system.cpu0.icache.tags.ageTaskId_1024::2            4                       # Occupied blocks per task id, per block age (Count)
system.cpu0.icache.tags.ageTaskId_1024::3          102                       # Occupied blocks per task id, per block age (Count)
system.cpu0.icache.tags.ratioOccsTaskId::1024            1                       # Ratio of occupied blocks and all blocks, per task id (Ratio)
system.cpu0.icache.tags.tagAccesses           2476279                       # Number of tag accesses (Count)
system.cpu0.icache.tags.dataAccesses          2476279                       # Number of data accesses (Count)
system.cpu0.icache.tags.power_state.pwrStateResidencyTicks::UNDEFINED   7516380000                       # Cumulative time (in ticks) in various power states (Tick)
system.cpu0.iew.idleCycles                          0                       # Number of cycles IEW is idle (Cycle)
system.cpu0.iew.squashCycles                    83902                       # Number of cycles IEW is squashing (Cycle)
system.cpu0.iew.blockCycles                   3955953                       # Number of cycles IEW is blocking (Cycle)
system.cpu0.iew.unblockCycles                  209278                       # Number of cycles IEW is unblocking (Cycle)
system.cpu0.iew.dispatchedInsts              29843509                       # Number of instructions dispatched to IQ (Count)
system.cpu0.iew.dispSquashedInsts                1972                       # Number of squashed instructions skipped by dispatch (Count)
system.cpu0.iew.dispLoadInsts                 3067013                       # Number of dispatched load instructions (Count)
system.cpu0.iew.dispStoreInsts                1216979                       # Number of dispatched store instructions (Count)
system.cpu0.iew.dispNonSpecInsts                24384                       # Number of dispatched non-speculative instructions (Count)
system.cpu0.iew.iqFullEvents                    39535                       # Number of times the IQ has become full, causing a stall (Count)
system.cpu0.iew.lsqFullEvents                  146178                       # Number of times the LSQ has become full, causing a stall (Count)
system.cpu0.iew.memOrderViolationEvents           250                       # Number of memory order violations (Count)
system.cpu0.iew.predictedTakenIncorrect         53766                       # Number of branches that were predicted taken incorrectly (Count)
system.cpu0.iew.predictedNotTakenIncorrect        59044                       # Number of branches that were predicted not taken incorrectly (Count)
system.cpu0.iew.branchMispredicts              112810                       # Number of branch mispredicts detected at execute (Count)
system.cpu0.iew.instsToCommit                27974643                       # Cumulative count of insts sent to commit (Count)
system.cpu0.iew.writebackCount               27935871                       # Cumulative count of insts written-back (Count)
system.cpu0.iew.producerInst                 21667319                       # Number of instructions producing a value (Count)
system.cpu0.iew.consumerInst                 35664053                       # Number of instructions consuming a value (Count)
system.cpu0.iew.wbRate                       1.858333                       # Insts written-back per cycle ((Count/Cycle))
system.cpu0.iew.wbFanout                     0.607539                       # Average fanout of values written-back ((Count/Count))
system.cpu0.interrupts.clk_domain.clock          8000                       # Clock period in ticks (Tick)
system.cpu0.itb_walker_cache.blockedCycles::no_mshrs            0                       # number of cycles access was blocked (Cycle)
system.cpu0.itb_walker_cache.blockedCycles::no_targets            0                       # number of cycles access was blocked (Cycle)
system.cpu0.itb_walker_cache.blockedCauses::no_mshrs            0                       # number of times access was blocked (Count)
system.cpu0.itb_walker_cache.blockedCauses::no_targets            0                       # number of times access was blocked (Count)
system.cpu0.itb_walker_cache.avgBlocked::no_mshrs          nan                       # average number of cycles each access was blocked ((Cycle/Count))
system.cpu0.itb_walker_cache.avgBlocked::no_targets          nan                       # average number of cycles each access was blocked ((Cycle/Count))
system.cpu0.itb_walker_cache.replacements            0                       # number of replacements (Count)
system.cpu0.itb_walker_cache.power_state.pwrStateResidencyTicks::UNDEFINED   7516380000                       # Cumulative time (in ticks) in various power states (Tick)
system.cpu0.itb_walker_cache.tags.tagsInUse            0                       # Average ticks per tags in use ((Tick/Count))
system.cpu0.itb_walker_cache.tags.totalRefs            0                       # Total number of references to valid blocks. (Count)
system.cpu0.itb_walker_cache.tags.sampledRefs            0                       # Sample count of references to valid blocks. (Count)
system.cpu0.itb_walker_cache.tags.avgRefs          nan                       # Average number of references to valid blocks. ((Count/Count))
system.cpu0.itb_walker_cache.tags.warmupTick            0                       # The tick when the warmup percentage was hit. (Tick)
system.cpu0.itb_walker_cache.tags.tagAccesses            0                       # Number of tag accesses (Count)
system.cpu0.itb_walker_cache.tags.dataAccesses            0                       # Number of data accesses (Count)
system.cpu0.itb_walker_cache.tags.power_state.pwrStateResidencyTicks::UNDEFINED   7516380000                       # Cumulative time (in ticks) in various power states (Tick)
system.cpu0.lsq0.forwLoads                     102495                       # Number of loads that had data forwarded from stores (Count)
system.cpu0.lsq0.squashedLoads                 641135                       # Number of loads squashed (Count)
system.cpu0.lsq0.ignoredResponses                 165                       # Number of memory responses ignored because the instruction is squashed (Count)
system.cpu0.lsq0.memOrderViolation                250                       # Number of memory ordering violations (Count)
system.cpu0.lsq0.squashedStores                206285                       # Number of stores squashed (Count)
system.cpu0.lsq0.rescheduledLoads                  16                       # Number of loads that were rescheduled (Count)
system.cpu0.lsq0.blockedByCache                  9408                       # Number of times an access to memory failed due to the cache being blocked (Count)
system.cpu0.lsq0.loadToUse::samples           2425878                       # Distribution of cycle latency between the first time a load is issued and its completion (Unspecified)
system.cpu0.lsq0.loadToUse::mean            17.188648                       # Distribution of cycle latency between the first time a load is issued and its completion (Unspecified)
system.cpu0.lsq0.loadToUse::stdev           43.276471                       # Distribution of cycle latency between the first time a load is issued and its completion (Unspecified)
system.cpu0.lsq0.loadToUse::0-9               2110486     87.00%     87.00% # Distribution of cycle latency between the first time a load is issued and its completion (Unspecified)
system.cpu0.lsq0.loadToUse::10-19               10265      0.42%     87.42% # Distribution of cycle latency between the first time a load is issued and its completion (Unspecified)
system.cpu0.lsq0.loadToUse::20-29               35151      1.45%     88.87% # Distribution of cycle latency between the first time a load is issued and its completion (Unspecified)
system.cpu0.lsq0.loadToUse::30-39                8980      0.37%     89.24% # Distribution of cycle latency between the first time a load is issued and its completion (Unspecified)
[...]
system.mem_ctrls.bwTotal::cpu3.data         444809869                       # Total bandwidth to/from this memory ((Byte/Second))
system.mem_ctrls.bwTotal::total            2632705638                       # Total bandwidth to/from this memory ((Byte/Second))
system.mem_ctrls.power_state.pwrStateResidencyTicks::UNDEFINED   7516380000                       # Cumulative time (in ticks) in various power states (Tick)
system.membus.transDist::ReadResp              142439                       # Transaction distribution (Count)
system.membus.transDist::WritebackDirty         87603                       # Transaction distribution (Count)
system.membus.transDist::CleanEvict            117111                       # Transaction distribution (Count)
system.membus.transDist::UpgradeReq                12                       # Transaction distribution (Count)
system.membus.transDist::ReadExReq              79151                       # Transaction distribution (Count)
system.membus.transDist::ReadExResp             79151                       # Transaction distribution (Count)
system.membus.transDist::ReadSharedReq         142440                       # Transaction distribution (Count)
system.membus.pktCount_system.l3.mem_side_port::system.mem_ctrls.port       647907                       # Packet count per connected requestor and responder (Count)
system.membus.pktCount_system.l3.mem_side_port::total       647907                       # Packet count per connected requestor and responder (Count)
system.membus.pktCount::total                  647907                       # Packet count per connected requestor and responder (Count)
system.membus.pktSize_system.l3.mem_side_port::system.mem_ctrls.port     19788352                       # Cumulative packet size per connected requestor and responder (Byte)
system.membus.pktSize_system.l3.mem_side_port::total     19788352                       # Cumulative packet size per connected requestor and responder (Byte)
system.membus.pktSize::total                 19788352                       # Cumulative packet size per connected requestor and responder (Byte)
system.membus.snoops                                0                       # Total snoops (Count)
system.membus.snoopTraffic                          0                       # Total snoop traffic (Byte)
system.membus.snoopFanout::samples             270342                       # Request fanout histogram (Count)
system.membus.snoopFanout::mean                     0                       # Request fanout histogram (Count)
system.membus.snoopFanout::stdev                    0                       # Request fanout histogram (Count)
system.membus.snoopFanout::underflows               0      0.00%      0.00% # Request fanout histogram (Count)
system.membus.snoopFanout::0                   270342    100.00%    100.00% # Request fanout histogram (Count)
system.membus.snoopFanout::1                        0      0.00%    100.00% # Request fanout histogram (Count)
system.membus.snoopFanout::overflows                0      0.00%    100.00% # Request fanout histogram (Count)
system.membus.snoopFanout::min_value                0                       # Request fanout histogram (Count)
system.membus.snoopFanout::max_value                0                       # Request fanout histogram (Count)
system.membus.snoopFanout::total               270342                       # Request fanout histogram (Count)
system.membus.power_state.pwrStateResidencyTicks::UNDEFINED   7516380000                       # Cumulative time (in ticks) in various power states (Tick)
system.membus.reqLayer8.occupancy           916658744                       # Layer occupancy (ticks) (Tick)
system.membus.reqLayer8.utilization               0.1                       # Layer utilization (Ratio)
system.membus.respLayer1.occupancy         1107950000                       # Layer occupancy (ticks) (Tick)
system.membus.respLayer1.utilization              0.1                       # Layer utilization (Ratio)
system.membus.snoop_filter.totRequests         493999                       # Total number of requests made to the snoop filter. (Count)
system.membus.snoop_filter.hitSingleRequests       223674                       # Number of requests hitting in the snoop filter with a single holder of the requested data. (Count)
system.membus.snoop_filter.hitMultiRequests            0                       # Number of requests hitting in the snoop filter with multiple (>1) holders of the requested data. (Count)
system.membus.snoop_filter.totSnoops                0                       # Total number of snoops made to the snoop filter. (Count)
system.membus.snoop_filter.hitSingleSnoops            0                       # Number of snoops hitting in the snoop filter with a single holder of the requested data. (Count)
system.membus.snoop_filter.hitMultiSnoops            0                       # Number of snoops hitting in the snoop filter with multiple (>1) holders of the requested data. (Count)
system.tol2bus.transDist::ReadResp             416627                       # Transaction distribution (Count)
system.tol2bus.transDist::WritebackDirty       501666                       # Transaction distribution (Count)
system.tol2bus.transDist::WritebackClean        13039                       # Transaction distribution (Count)
system.tol2bus.transDist::CleanEvict           428936                       # Transaction distribution (Count)
system.tol2bus.transDist::UpgradeReq            27835                       # Transaction distribution (Count)
system.tol2bus.transDist::UpgradeResp           27835                       # Transaction distribution (Count)
system.tol2bus.transDist::ReadExReq            104097                       # Transaction distribution (Count)
system.tol2bus.transDist::ReadExResp           104097                       # Transaction distribution (Count)
system.tol2bus.transDist::ReadCleanReq          15090                       # Transaction distribution (Count)
system.tol2bus.transDist::ReadSharedReq        401538                       # Transaction distribution (Count)
system.tol2bus.pktCount_system.cpu0.icache.mem_side_port::system.l2.cpu_side_port        10722                       # Packet count per connected requestor and responder (Count)
system.tol2bus.pktCount_system.cpu0.dcache.mem_side_port::system.l2.cpu_side_port       392047                       # Packet count per connected requestor and responder (Count)
system.tol2bus.pktCount_system.cpu1.icache.mem_side_port::system.l2.cpu_side_port        10964                       # Packet count per connected requestor and responder (Count)
system.tol2bus.pktCount_system.cpu1.dcache.mem_side_port::system.l2.cpu_side_port       392874                       # Packet count per connected requestor and responder (Count)
system.tol2bus.pktCount_system.cpu2.icache.mem_side_port::system.l2.cpu_side_port        10764                       # Packet count per connected requestor and responder (Count)
system.tol2bus.pktCount_system.cpu2.dcache.mem_side_port::system.l2.cpu_side_port       392762                       # Packet count per connected requestor and responder (Count)
system.tol2bus.pktCount_system.cpu3.icache.mem_side_port::system.l2.cpu_side_port        10761                       # Packet count per connected requestor and responder (Count)
system.tol2bus.pktCount_system.cpu3.dcache.mem_side_port::system.l2.cpu_side_port       392844                       # Packet count per connected requestor and responder (Count)
system.tol2bus.pktCount::total                1613738                       # Packet count per connected requestor and responder (Count)
system.tol2bus.pktSize_system.cpu0.icache.mem_side_port::system.l2.cpu_side_port       446464                       # Cumulative packet size per connected requestor and responder (Byte)
system.tol2bus.pktSize_system.cpu0.dcache.mem_side_port::system.l2.cpu_side_port     12616704                       # Cumulative packet size per connected requestor and responder (Byte)
system.tol2bus.pktSize_system.cpu1.icache.mem_side_port::system.l2.cpu_side_port       456832                       # Cumulative packet size per connected requestor and responder (Byte)
system.tol2bus.pktSize_system.cpu1.dcache.mem_side_port::system.l2.cpu_side_port     12624256                       # Cumulative packet size per connected requestor and responder (Byte)
system.tol2bus.pktSize_system.cpu2.icache.mem_side_port::system.l2.cpu_side_port       448256                       # Cumulative packet size per connected requestor and responder (Byte)
system.tol2bus.pktSize_system.cpu2.dcache.mem_side_port::system.l2.cpu_side_port     12639680                       # Cumulative packet size per connected requestor and responder (Byte)
system.tol2bus.pktSize_system.cpu3.icache.mem_side_port::system.l2.cpu_side_port       448192                       # Cumulative packet size per connected requestor and responder (Byte)
system.tol2bus.pktSize_system.cpu3.dcache.mem_side_port::system.l2.cpu_side_port     12644096                       # Cumulative packet size per connected requestor and responder (Byte)
system.tol2bus.pktSize::total                52324480                       # Cumulative packet size per connected requestor and responder (Byte)
system.tol2bus.snoops                          427022                       # Total snoops (Count)
system.tol2bus.snoopTraffic                  13942976                       # Total snoop traffic (Byte)
system.tol2bus.snoopFanout::samples            975588                       # Request fanout histogram (Count)
system.tol2bus.snoopFanout::mean             0.135266                       # Request fanout histogram (Count)
system.tol2bus.snoopFanout::stdev            0.342116                       # Request fanout histogram (Count)
system.tol2bus.snoopFanout::underflows              0      0.00%      0.00% # Request fanout histogram (Count)
system.tol2bus.snoopFanout::0                  843660     86.48%     86.48% # Request fanout histogram (Count)
system.tol2bus.snoopFanout::1                  131892     13.52%    100.00% # Request fanout histogram (Count)
system.tol2bus.snoopFanout::2                      36      0.00%    100.00% # Request fanout histogram (Count)
system.tol2bus.snoopFanout::3                       0      0.00%    100.00% # Request fanout histogram (Count)
system.tol2bus.snoopFanout::4                       0      0.00%    100.00% # Request fanout histogram (Count)
system.tol2bus.snoopFanout::5                       0      0.00%    100.00% # Request fanout histogram (Count)
system.tol2bus.snoopFanout::6                       0      0.00%    100.00% # Request fanout histogram (Count)
system.tol2bus.snoopFanout::7                       0      0.00%    100.00% # Request fanout histogram (Count)
system.tol2bus.snoopFanout::8                       0      0.00%    100.00% # Request fanout histogram (Count)
system.tol2bus.snoopFanout::9                       0      0.00%    100.00% # Request fanout histogram (Count)
system.tol2bus.snoopFanout::10                      0      0.00%    100.00% # Request fanout histogram (Count)
system.tol2bus.snoopFanout::11                      0      0.00%    100.00% # Request fanout histogram (Count)
system.tol2bus.snoopFanout::12                      0      0.00%    100.00% # Request fanout histogram (Count)
system.tol2bus.snoopFanout::13                      0      0.00%    100.00% # Request fanout histogram (Count)
system.tol2bus.snoopFanout::14                      0      0.00%    100.00% # Request fanout histogram (Count)
system.tol2bus.snoopFanout::15                      0      0.00%    100.00% # Request fanout histogram (Count)
system.tol2bus.snoopFanout::16                      0      0.00%    100.00% # Request fanout histogram (Count)
system.tol2bus.snoopFanout::overflows               0      0.00%    100.00% # Request fanout histogram (Count)
system.tol2bus.snoopFanout::min_value               0                       # Request fanout histogram (Count)
system.tol2bus.snoopFanout::max_value               2                       # Request fanout histogram (Count)
system.tol2bus.snoopFanout::total              975588                       # Request fanout histogram (Count)
system.tol2bus.power_state.pwrStateResidencyTicks::UNDEFINED   7516380000                       # Cumulative time (in ticks) in various power states (Tick)
system.tol2bus.reqLayer0.occupancy          829459487                       # Layer occupancy (ticks) (Tick)
system.tol2bus.reqLayer0.utilization              0.1                       # Layer utilization (Ratio)
system.tol2bus.respLayer0.occupancy           5625484                       # Layer occupancy (ticks) (Tick)
system.tol2bus.respLayer0.utilization             0.0                       # Layer utilization (Ratio)
system.tol2bus.respLayer1.occupancy         194025465                       # Layer occupancy (ticks) (Tick)
system.tol2bus.respLayer1.utilization             0.0                       # Layer utilization (Ratio)
system.tol2bus.respLayer12.occupancy          5642988                       # Layer occupancy (ticks) (Tick)
system.tol2bus.respLayer12.utilization            0.0                       # Layer utilization (Ratio)
system.tol2bus.respLayer13.occupancy        194492790                       # Layer occupancy (ticks) (Tick)
system.tol2bus.respLayer13.utilization            0.0                       # Layer utilization (Ratio)
system.tol2bus.respLayer4.occupancy           5747483                       # Layer occupancy (ticks) (Tick)
system.tol2bus.respLayer4.utilization             0.0                       # Layer utilization (Ratio)
system.tol2bus.respLayer5.occupancy         194520348                       # Layer occupancy (ticks) (Tick)
system.tol2bus.respLayer5.utilization             0.0                       # Layer utilization (Ratio)
system.tol2bus.respLayer8.occupancy           5645489                       # Layer occupancy (ticks) (Tick)
system.tol2bus.respLayer8.utilization             0.0                       # Layer utilization (Ratio)
system.tol2bus.respLayer9.occupancy         194475815                       # Layer occupancy (ticks) (Tick)
system.tol2bus.respLayer9.utilization             0.0                       # Layer utilization (Ratio)
system.tol2bus.snoop_filter.totRequests       1065200                       # Total number of requests made to the snoop filter. (Count)
system.tol2bus.snoop_filter.hitSingleRequests       544464                       # Number of requests hitting in the snoop filter with a single holder of the requested data. (Count)
system.tol2bus.snoop_filter.hitMultiRequests           47                       # Number of requests hitting in the snoop filter with multiple (>1) holders of the requested data. (Count)
system.tol2bus.snoop_filter.totSnoops          131877                       # Total number of snoops made to the snoop filter. (Count)
system.tol2bus.snoop_filter.hitSingleSnoops       131841                       # Number of snoops hitting in the snoop filter with a single holder of the requested data. (Count)
system.tol2bus.snoop_filter.hitMultiSnoops           36                       # Number of snoops hitting in the snoop filter with multiple (>1) holders of the requested data. (Count)
system.tol3bus.transDist::ReadResp             273596                       # Transaction distribution (Count)
system.tol3bus.transDist::WritebackDirty       304801                       # Transaction distribution (Count)
system.tol3bus.transDist::CleanEvict           281494                       # Transaction distribution (Count)
system.tol3bus.transDist::UpgradeReq               46                       # Transaction distribution (Count)
system.tol3bus.transDist::UpgradeResp              46                       # Transaction distribution (Count)
system.tol3bus.transDist::ReadExReq             99169                       # Transaction distribution (Count)
system.tol3bus.transDist::ReadExResp            99169                       # Transaction distribution (Count)
system.tol3bus.transDist::ReadSharedReq        273597                       # Transaction distribution (Count)
system.tol3bus.pktCount_system.l2.mem_side_port::system.l3.cpu_side_port      1124601                       # Packet count per connected requestor and responder (Count)
system.tol3bus.pktSize_system.l2.mem_side_port::system.l3.cpu_side_port     37757632                       # Cumulative packet size per connected requestor and responder (Byte)
system.tol3bus.snoops                          207317                       # Total snoops (Count)
system.tol3bus.snoopTraffic                   5606592                       # Total snoop traffic (Byte)
system.tol3bus.snoopFanout::samples            580129                       # Request fanout histogram (Count)
system.tol3bus.snoopFanout::mean             0.016989                       # Request fanout histogram (Count)
system.tol3bus.snoopFanout::stdev            0.129231                       # Request fanout histogram (Count)
system.tol3bus.snoopFanout::underflows              0      0.00%      0.00% # Request fanout histogram (Count)
system.tol3bus.snoopFanout::0                  570273     98.30%     98.30% # Request fanout histogram (Count)
system.tol3bus.snoopFanout::1                    9856      1.70%    100.00% # Request fanout histogram (Count)
system.tol3bus.snoopFanout::overflows               0      0.00%    100.00% # Request fanout histogram (Count)
system.tol3bus.snoopFanout::min_value               0                       # Request fanout histogram (Count)
system.tol3bus.snoopFanout::max_value               1                       # Request fanout histogram (Count)
system.tol3bus.snoopFanout::total              580129                       # Request fanout histogram (Count)
system.tol3bus.power_state.pwrStateResidencyTicks::UNDEFINED   7516380000                       # Cumulative time (in ticks) in various power states (Tick)
system.tol3bus.reqLayer0.occupancy          593093010                       # Layer occupancy (ticks) (Tick)
system.tol3bus.reqLayer0.utilization              0.1                       # Layer utilization (Ratio)
system.tol3bus.respLayer0.occupancy         559170500                       # Layer occupancy (ticks) (Tick)
system.tol3bus.respLayer0.utilization             0.1                       # Layer utilization (Ratio)
system.tol3bus.snoop_filter.totRequests        751790                       # Total number of requests made to the snoop filter. (Count)
system.tol3bus.snoop_filter.hitSingleRequests       379052                       # Number of requests hitting in the snoop filter with a single holder of the requested data. (Count)
system.tol3bus.snoop_filter.hitMultiRequests            0                       # Number of requests hitting in the snoop filter with multiple (>1) holders of the requested data. (Count)
system.tol3bus.snoop_filter.totSnoops            9856                       # Total number of snoops made to the snoop filter. (Count)
system.tol3bus.snoop_filter.hitSingleSnoops         9856                       # Number of snoops hitting in the snoop filter with a single holder of the requested data. (Count)
system.tol3bus.snoop_filter.hitMultiSnoops            0                       # Number of snoops hitting in the snoop filter with multiple (>1) holders of the requested data. (Count)
system.voltage_domain.voltage                       1                       # Voltage in Volts (Volt)
system.workload.inst.arm                            0                       # number of arm instructions executed (Count)
system.workload.inst.quiesce                        0                       # number of quiesce instructions executed (Count)

---------- End Simulation Statistics   ----------
