
---------- Begin Simulation Statistics ----------
simSeconds                                   0.004734                       # Number of seconds simulated (Second)
simTicks                                   4734390000                       # Number of ticks simulated (Tick)
finalTick                                  4734390000                       # Number of ticks from beginning of simulation (restored from checkpoints and never reset) (Tick)
simFreq                                  1000000000000                       # The number of ticks per simulated second ((Tick/Second))
hostSeconds                                     93.19                       # Real time elapsed on the host (Second)
hostTickRate                                 50805674                       # The number of ticks simulated per host second (ticks/s) ((Tick/Second))
hostMemory                                    8593528                       # Number of bytes of host memory used (Byte)
simInsts                                     12961815                       # Number of instructions simulated (Count)
simOps                                       24681788                       # Number of ops (including micro ops) simulated (Count)
hostInstRate                                   139096                       # Simulator instruction rate (inst/s) ((Count/Second))
hostOpRate                                     264865                       # Simulator op (including micro ops) rate (op/s) ((Count/Second))
system.clk_domain.clock                          1000                       # Clock period in ticks (Tick)
system.cpu.numCycles                          9468781                       # Number of cpu cycles simulated (Cycle)
system.cpu.numWorkItemsStarted                      0                       # Number of work items this cpu started (Count)
system.cpu.numWorkItemsCompleted                    0                       # Number of work items this cpu completed (Count)
system.cpu.instsAdded                        28216693                       # Number of instructions added to the IQ (excludes non-spec) (Count)
system.cpu.nonSpecInstsAdded                    61998                       # Number of non-speculative instructions added to the IQ (Count)
system.cpu.instsIssued                       26947909                       # Number of instructions issued (Count)
system.cpu.squashedInstsIssued                  40591                       # Number of squashed instructions issued (Count)
system.cpu.squashedInstsExamined              3596897                       # Number of squashed instructions iterated over during squash; mainly for profiling (Count)
system.cpu.squashedOperandsExamined           5527148                       # Number of squashed operands that are examined and possibly removed from graph (Count)
system.cpu.squashedNonSpecRemoved               33144                       # Number of squashed non-spec instructions that were removed (Count)
system.cpu.numIssuedDist::samples             9307010                       # Number of insts issued each cycle (Count)
system.cpu.numIssuedDist::mean               2.895442                       # Number of insts issued each cycle (Count)
system.cpu.numIssuedDist::stdev              2.534219                       # Number of insts issued each cycle (Count)
system.cpu.numIssuedDist::underflows                0      0.00%      0.00% # Number of insts issued each cycle (Count)
system.cpu.numIssuedDist::0                   2804809     30.14%     30.14% # Number of insts issued each cycle (Count)
system.cpu.numIssuedDist::1                    815710      8.76%     38.90% # Number of insts issued each cycle (Count)
system.cpu.numIssuedDist::2                    786469      8.45%     47.35% # Number of insts issued each cycle (Count)
system.cpu.numIssuedDist::3                   1054993     11.34%     58.69% # Number of insts issued each cycle (Count)
system.cpu.numIssuedDist::4                    854733      9.18%     67.87% # Number of insts issued each cycle (Count)
system.cpu.numIssuedDist::5                   1061637     11.41%     79.28% # Number of insts issued each cycle (Count)
system.cpu.numIssuedDist::6                   1061222     11.40%     90.68% # Number of insts issued each cycle (Count)
system.cpu.numIssuedDist::7                    639663      6.87%     97.55% # Number of insts issued each cycle (Count)
system.cpu.numIssuedDist::8                    227774      2.45%    100.00% # Number of insts issued each cycle (Count)
system.cpu.numIssuedDist::overflows                 0      0.00%    100.00% # Number of insts issued each cycle (Count)
system.cpu.numIssuedDist::min_value                 0                       # Number of insts issued each cycle (Count)
system.cpu.numIssuedDist::max_value                 8                       # Number of insts issued each cycle (Count)
system.cpu.numIssuedDist::total               9307010                       # Number of insts issued each cycle (Count)
system.cpu.statFuBusy::No_OpClass                   0      0.00%      0.00% # attempts to use FU when none available (Count)
system.cpu.statFuBusy::IntAlu                  846281     96.41%     96.41% # attempts to use FU when none available (Count)
system.cpu.statFuBusy::IntMult                      0      0.00%     96.41% # attempts to use FU when none available (Count)
system.cpu.statFuBusy::IntDiv                       0      0.00%     96.41% # attempts to use FU when none available (Count)
system.cpu.statFuBusy::FloatAdd                     0      0.00%     96.41% # attempts to use FU when none available (Count)
system.cpu.statFuBusy::FloatCmp                     0      0.00%     96.41% # attempts to use FU when none available (Count)
system.cpu.statFuBusy::FloatCvt                     0      0.00%     96.41% # attempts to use FU when none available (Count)
system.cpu.statFuBusy::FloatMult                    0      0.00%     96.41% # attempts to use FU when none available (Count)
system.cpu.statFuBusy::FloatMultAcc                 0      0.00%     96.41% # attempts to use FU when none available (Count)
system.cpu.statFuBusy::FloatDiv                     0      0.00%     96.41% # attempts to use FU when none available (Count)
system.cpu.statFuBusy::FloatMisc                    0      0.00%     96.41% # attempts to use FU when none available (Count)
system.cpu.statFuBusy::FloatSqrt                    0      0.00%     96.41% # attempts to use FU when none available (Count)
system.cpu.statFuBusy::SimdAdd                      2      0.00%     96.41% # attempts to use FU when none available (Count)
system.cpu.statFuBusy::SimdAddAcc                   0      0.00%     96.41% # attempts to use FU when none available (Count)
system.cpu.statFuBusy::SimdAlu                    127      0.01%     96.43% # attempts to use FU when none available (Count)
system.cpu.statFuBusy::SimdCmp                      0      0.00%     96.43% # attempts to use FU when none available (Count)
system.cpu.statFuBusy::SimdCvt                    989      0.11%     96.54% # attempts to use FU when none available (Count)
system.cpu.statFuBusy::SimdMisc                    15      0.00%     96.54% # attempts to use FU when none available (Count)
system.cpu.statFuBusy::SimdMult                     0      0.00%     96.54% # attempts to use FU when none available (Count)
system.cpu.statFuBusy::SimdMultAcc                  0      0.00%     96.54% # attempts to use FU when none available (Count)
system.cpu.statFuBusy::SimdShift                   34      0.00%     96.55% # attempts to use FU when none available (Count)
system.cpu.statFuBusy::SimdShiftAcc                 0      0.00%     96.55% # attempts to use FU when none available (Count)
system.cpu.statFuBusy::SimdDiv                      0      0.00%     96.55% # attempts to use FU when none available (Count)
system.cpu.statFuBusy::SimdSqrt                     0      0.00%     96.55% # attempts to use FU when none available (Count)
system.cpu.statFuBusy::SimdFloatAdd                 0      0.00%     96.55% # attempts to use FU when none available (Count)
system.cpu.statFuBusy::SimdFloatAlu                 0      0.00%     96.55% # attempts to use FU when none available (Count)
system.cpu.statFuBusy::SimdFloatCmp                 0      0.00%     96.55% # attempts to use FU when none available (Count)
system.cpu.statFuBusy::SimdFloatCvt                 0      0.00%     96.55% # attempts to use FU when none available (Count)
system.cpu.statFuBusy::SimdFloatDiv                 0      0.00%     96.55% # attempts to use FU when none available (Count)
system.cpu.statFuBusy::SimdFloatMisc                0      0.00%     96.55% # attempts to use FU when none available (Count)
system.cpu.statFuBusy::SimdFloatMult                0      0.00%     96.55% # attempts to use FU when none available (Count)
system.cpu.statFuBusy::SimdFloatMultAcc             0      0.00%     96.55% # attempts to use FU when none available (Count)
system.cpu.statFuBusy::SimdFloatSqrt                0      0.00%     96.55% # attempts to use FU when none available (Count)
system.cpu.statFuBusy::SimdReduceAdd                0      0.00%     96.55% # attempts to use FU when none available (Count)
system.cpu.statFuBusy::SimdReduceAlu                0      0.00%     96.55% # attempts to use FU when none available (Count)
system.cpu.statFuBusy::SimdReduceCmp                0      0.00%     96.55% # attempts to use FU when none available (Count)
system.cpu.statFuBusy::SimdFloatReduceAdd            0      0.00%     96.55% # attempts to use FU when none available (Count)
system.cpu.statFuBusy::SimdFloatReduceCmp            0      0.00%     96.55% # attempts to use FU when none available (Count)
system.cpu.statFuBusy::SimdAes                      0      0.00%     96.55% # attempts to use FU when none available (Count)
system.cpu.statFuBusy::SimdAesMix                   0      0.00%     96.55% # attempts to use FU when none available (Count)
system.cpu.statFuBusy::SimdSha1Hash                 0      0.00%     96.55% # attempts to use FU when none available (Count)
system.cpu.statFuBusy::SimdSha1Hash2                0      0.00%     96.55% # attempts to use FU when none available (Count)
system.cpu.statFuBusy::SimdSha256Hash               0      0.00%     96.55% # attempts to use FU when none available (Count)
system.cpu.statFuBusy::SimdSha256Hash2              0      0.00%     96.55% # attempts to use FU when none available (Count)
system.cpu.statFuBusy::SimdShaSigma2                0      0.00%     96.55% # attempts to use FU when none available (Count)
system.cpu.statFuBusy::SimdShaSigma3                0      0.00%     96.55% # attempts to use FU when none available (Count)
system.cpu.statFuBusy::SimdPredAlu                  0      0.00%     96.55% # attempts to use FU when none available (Count)
system.cpu.statFuBusy::MemRead                  20491      2.33%     98.88% # attempts to use FU when none available (Count)
system.cpu.statFuBusy::MemWrite                  8957      1.02%     99.90% # attempts to use FU when none available (Count)
system.cpu.statFuBusy::FloatMemRead               619      0.07%     99.97% # attempts to use FU when none available (Count)
system.cpu.statFuBusy::FloatMemWrite              244      0.03%    100.00% # attempts to use FU when none available (Count)
system.cpu.statFuBusy::IprAccess                    0      0.00%    100.00% # attempts to use FU when none available (Count)
system.cpu.statFuBusy::InstPrefetch                 0      0.00%    100.00% # attempts to use FU when none available (Count)
system.cpu.statIssuedInstType_0::No_OpClass       127454      0.47%      0.47% # Number of instructions issued per FU type, per thread (Count)
system.cpu.statIssuedInstType_0::IntAlu      22838381     84.75%     85.22% # Number of instructions issued per FU type, per thread (Count)
system.cpu.statIssuedInstType_0::IntMult       121130      0.45%     85.67% # Number of instructions issued per FU type, per thread (Count)
system.cpu.statIssuedInstType_0::IntDiv         43254      0.16%     85.83% # Number of instructions issued per FU type, per thread (Count)
system.cpu.statIssuedInstType_0::FloatAdd         8329      0.03%     85.86% # Number of instructions issued per FU type, per thread (Count)
system.cpu.statIssuedInstType_0::FloatCmp            0      0.00%     85.86% # Number of instructions issued per FU type, per thread (Count)
system.cpu.statIssuedInstType_0::FloatCvt         1770      0.01%     85.87% # Number of instructions issued per FU type, per thread (Count)
system.cpu.statIssuedInstType_0::FloatMult            0      0.00%     85.87% # Number of instructions issued per FU type, per thread (Count)
system.cpu.statIssuedInstType_0::FloatMultAcc            0      0.00%     85.87% # Number of instructions issued per FU type, per thread (Count)
system.cpu.statIssuedInstType_0::FloatDiv            0      0.00%     85.87% # Number of instructions issued per FU type, per thread (Count)
system.cpu.statIssuedInstType_0::FloatMisc            0      0.00%     85.87% # Number of instructions issued per FU type, per thread (Count)
system.cpu.statIssuedInstType_0::FloatSqrt            0      0.00%     85.87% # Number of instructions issued per FU type, per thread (Count)
system.cpu.statIssuedInstType_0::SimdAdd         7964      0.03%     85.90% # Number of instructions issued per FU type, per thread (Count)
system.cpu.statIssuedInstType_0::SimdAddAcc            0      0.00%     85.90% # Number of instructions issued per FU type, per thread (Count)
system.cpu.statIssuedInstType_0::SimdAlu        15778      0.06%     85.96% # Number of instructions issued per FU type, per thread (Count)
system.cpu.statIssuedInstType_0::SimdCmp            8      0.00%     85.96% # Number of instructions issued per FU type, per thread (Count)
system.cpu.statIssuedInstType_0::SimdCvt        17263      0.06%     86.02% # Number of instructions issued per FU type, per thread (Count)
system.cpu.statIssuedInstType_0::SimdMisc        14934      0.06%     86.08% # Number of instructions issued per FU type, per thread (Count)
system.cpu.statIssuedInstType_0::SimdMult            0      0.00%     86.08% # Number of instructions issued per FU type, per thread (Count)
system.cpu.statIssuedInstType_0::SimdMultAcc            0      0.00%     86.08% # Number of instructions issued per FU type, per thread (Count)
system.cpu.statIssuedInstType_0::SimdShift         2382      0.01%     86.09% # Number of instructions issued per FU type, per thread (Count)
system.cpu.statIssuedInstType_0::SimdShiftAcc            0      0.00%     86.09% # Number of instructions issued per FU type, per thread (Count)
system.cpu.statIssuedInstType_0::SimdDiv            0      0.00%     86.09% # Number of instructions issued per FU type, per thread (Count)
system.cpu.statIssuedInstType_0::SimdSqrt            0      0.00%     86.09% # Number of instructions issued per FU type, per thread (Count)
system.cpu.statIssuedInstType_0::SimdFloatAdd            4      0.00%     86.09% # Number of instructions issued per FU type, per thread (Count)
system.cpu.statIssuedInstType_0::SimdFloatAlu            0      0.00%     86.09% # Number of instructions issued per FU type, per thread (Count)
system.cpu.statIssuedInstType_0::SimdFloatCmp            0      0.00%     86.09% # Number of instructions issued per FU type, per thread (Count)
system.cpu.statIssuedInstType_0::SimdFloatCvt           10      0.00%     86.09% # Number of instructions issued per FU type, per thread (Count)
system.cpu.statIssuedInstType_0::SimdFloatDiv            2      0.00%     86.09% # Number of instructions issued per FU type, per thread (Count)
system.cpu.statIssuedInstType_0::SimdFloatMisc            0      0.00%     86.09% # Number of instructions issued per FU type, per thread (Count)
system.cpu.statIssuedInstType_0::SimdFloatMult            0      0.00%     86.09% # Number of instructions issued per FU type, per thread (Count)
system.cpu.statIssuedInstType_0::SimdFloatMultAcc            0      0.00%     86.09% # Number of instructions issued per FU type, per thread (Count)
system.cpu.statIssuedInstType_0::SimdFloatSqrt            0      0.00%     86.09% # Number of instructions issued per FU type, per thread (Count)
system.cpu.statIssuedInstType_0::SimdReduceAdd            0      0.00%     86.09% # Number of instructions issued per FU type, per thread (Count)
system.cpu.statIssuedInstType_0::SimdReduceAlu            0      0.00%     86.09% # Number of instructions issued per FU type, per thread (Count)
system.cpu.statIssuedInstType_0::SimdReduceCmp            0      0.00%     86.09% # Number of instructions issued per FU type, per thread (Count)
system.cpu.statIssuedInstType_0::SimdFloatReduceAdd            0      0.00%     86.09% # Number of instructions issued per FU type, per thread (Count)
system.cpu.statIssuedInstType_0::SimdFloatReduceCmp            0      0.00%     86.09% # Number of instructions issued per FU type, per thread (Count)
system.cpu.statIssuedInstType_0::SimdAes            0      0.00%     86.09% # Number of instructions issued per FU type, per thread (Count)
system.cpu.statIssuedInstType_0::SimdAesMix            0      0.00%     86.09% # Number of instructions issued per FU type, per thread (Count)
system.cpu.statIssuedInstType_0::SimdSha1Hash            0      0.00%     86.09% # Number of instructions issued per FU type, per thread (Count)
system.cpu.statIssuedInstType_0::SimdSha1Hash2            0      0.00%     86.09% # Number of instructions issued per FU type, per thread (Count)
system.cpu.statIssuedInstType_0::SimdSha256Hash            0      0.00%     86.09% # Number of instructions issued per FU type, per thread (Count)
system.cpu.statIssuedInstType_0::SimdSha256Hash2            0      0.00%     86.09% # Number of instructions issued per FU type, per thread (Count)
system.cpu.statIssuedInstType_0::SimdShaSigma2            0      0.00%     86.09% # Number of instructions issued per FU type, per thread (Count)
system.cpu.statIssuedInstType_0::SimdShaSigma3            0      0.00%     86.09% # Number of instructions issued per FU type, per thread (Count)
system.cpu.statIssuedInstType_0::SimdPredAlu            0      0.00%     86.09% # Number of instructions issued per FU type, per thread (Count)
system.cpu.statIssuedInstType_0::MemRead      2637921      9.79%     95.88% # Number of instructions issued per FU type, per thread (Count)
system.cpu.statIssuedInstType_0::MemWrite      1070229      3.97%     99.85% # Number of instructions issued per FU type, per thread (Count)
system.cpu.statIssuedInstType_0::FloatMemRead        24441      0.09%     99.94% # Number of instructions issued per FU type, per thread (Count)
system.cpu.statIssuedInstType_0::FloatMemWrite        16655      0.06%    100.00% # Number of instructions issued per FU type, per thread (Count)
system.cpu.statIssuedInstType_0::IprAccess            0      0.00%    100.00% # Number of instructions issued per FU type, per thread (Count)
system.cpu.statIssuedInstType_0::InstPrefetch            0      0.00%    100.00% # Number of instructions issued per FU type, per thread (Count)
system.cpu.statIssuedInstType_0::total       26947909                       # Number of instructions issued per FU type, per thread (Count)
system.cpu.issueRate                         2.845974                       # Inst issue rate ((Count/Cycle))
system.cpu.fuBusy                              877759                       # FU busy when requested (Count)
system.cpu.fuBusyRate                        0.032572                       # FU busy rate (busy events/executed inst) ((Count/Count))
system.cpu.intInstQueueReads                 63892113                       # Number of integer instruction queue reads (Count)
system.cpu.intInstQueueWrites                31721937                       # Number of integer instruction queue writes (Count)
system.cpu.intInstQueueWakeupAccesses        26613204                       # Number of integer instruction queue wakeup accesses (Count)
system.cpu.fpInstQueueReads                    229065                       # Number of floating instruction queue reads (Count)
system.cpu.fpInstQueueWrites                   153835                       # Number of floating instruction queue writes (Count)
system.cpu.fpInstQueueWakeupAccesses           110243                       # Number of floating instruction queue wakeup accesses (Count)
system.cpu.vecInstQueueReads                        0                       # Number of vector instruction queue reads (Count)
system.cpu.vecInstQueueWrites                       0                       # Number of vector instruction queue writes (Count)
system.cpu.vecInstQueueWakeupAccesses               0                       # Number of vector instruction queue wakeup accesses (Count)
system.cpu.intAluAccesses                    27582761                       # Number of integer alu accesses (Count)
system.cpu.fpAluAccesses                       115453                       # Number of floating point alu accesses (Count)
system.cpu.vecAluAccesses                           0                       # Number of vector alu accesses (Count)
system.cpu.numInsts                          26803344                       # Number of executed instructions (Count)
system.cpu.numLoadInsts                       2628647                       # Number of load instructions executed (Count)
system.cpu.numSquashedInsts                    144565                       # Number of squashed instructions skipped in execute (Count)
system.cpu.numSwp                                   0                       # Number of swp insts executed (Count)
system.cpu.numNop                                   0                       # Number of nop insts executed (Count)
system.cpu.numRefs                            3704402                       # Number of memory reference insts executed (Count)
system.cpu.numBranches                        3328835                       # Number of branches executed (Count)
system.cpu.numStoreInsts                      1075755                       # Number of stores executed (Count)
system.cpu.numRate                           2.830707                       # Inst execution rate ((Count/Cycle))
system.cpu.timesIdled                            2037                       # Number of times that the entire CPU went into an idle state and unscheduled itself (Count)
system.cpu.idleCycles                          161771                       # Total number of cycles that the CPU has spent unscheduled due to idling (Cycle)
system.cpu.committedInsts                    12961815                       # Number of Instructions Simulated (Count)
system.cpu.committedOps                      24681788                       # Number of Ops (including micro ops) Simulated (Count)
system.cpu.cpi                               0.730514                       # CPI: Cycles Per Instruction ((Cycle/Count))
system.cpu.totalCpi                          0.730514                       # CPI: Total CPI of All Threads ((Cycle/Count))
system.cpu.ipc                               1.368900                       # IPC: Instructions Per Cycle ((Count/Cycle))
system.cpu.totalIpc                          1.368900                       # IPC: Total IPC of All Threads ((Count/Cycle))
system.cpu.intRegfileReads                   38504254                       # Number of integer regfile reads (Count)
system.cpu.intRegfileWrites                  22314083                       # Number of integer regfile writes (Count)
system.cpu.fpRegfileReads                      152236                       # Number of floating regfile reads (Count)
system.cpu.fpRegfileWrites                      84290                       # Number of floating regfile writes (Count)
system.cpu.ccRegfileReads                    18796117                       # number of cc regfile reads (Count)
system.cpu.ccRegfileWrites                   11317127                       # number of cc regfile writes (Count)
system.cpu.miscRegfileReads                  10621998                       # number of misc regfile reads (Count)
system.cpu.miscRegfileWrites                      990                       # number of misc regfile writes (Count)
system.cpu.MemDepUnit__0.insertedLoads        2832010                       # Number of loads inserted to the mem dependence unit. (Count)
system.cpu.MemDepUnit__0.insertedStores       1174473                       # Number of stores inserted to the mem dependence unit. (Count)
system.cpu.MemDepUnit__0.conflictingLoads       194700                       # Number of conflicting loads. (Count)
system.cpu.MemDepUnit__0.conflictingStores        55367                       # Number of conflicting stores. (Count)
system.cpu.MemDepUnit__1.insertedLoads              0                       # Number of loads inserted to the mem dependence unit. (Count)
system.cpu.MemDepUnit__1.insertedStores             0                       # Number of stores inserted to the mem dependence unit. (Count)
system.cpu.MemDepUnit__1.conflictingLoads            0                       # Number of conflicting loads. (Count)
system.cpu.MemDepUnit__1.conflictingStores            0                       # Number of conflicting stores. (Count)
system.cpu.MemDepUnit__2.insertedLoads              0                       # Number of loads inserted to the mem dependence unit. (Count)
system.cpu.MemDepUnit__2.insertedStores             0                       # Number of stores inserted to the mem dependence unit. (Count)
system.cpu.MemDepUnit__2.conflictingLoads            0                       # Number of conflicting loads. (Count)
system.cpu.MemDepUnit__2.conflictingStores            0                       # Number of conflicting stores. (Count)
system.cpu.MemDepUnit__3.insertedLoads              0                       # Number of loads inserted to the mem dependence unit. (Count)
system.cpu.MemDepUnit__3.insertedStores             0                       # Number of stores inserted to the mem dependence unit. (Count)
system.cpu.MemDepUnit__3.conflictingLoads            0                       # Number of conflicting loads. (Count)
system.cpu.MemDepUnit__3.conflictingStores            0                       # Number of conflicting stores. (Count)
system.cpu.branchPred.lookups                 3790291                       # Number of BP lookups (Count)
system.cpu.branchPred.condPredicted           3512393                       # Number of conditional branches predicted (Count)
system.cpu.branchPred.condIncorrect             79840                       # Number of conditional branches incorrect (Count)
system.cpu.branchPred.BTBLookups              2116535                       # Number of BTB lookups (Count)
system.cpu.branchPred.BTBHits                 2111919                       # Number of BTB hits (Count)
system.cpu.branchPred.BTBHitRatio            0.997819                       # BTB Hit Ratio (Ratio)
system.cpu.branchPred.RASUsed                   48149                       # Number of times the RAS was used to get a target. (Count)
system.cpu.branchPred.RASIncorrect                 14                       # Number of incorrect RAS predictions. (Count)
system.cpu.branchPred.indirectLookups           46257                       # Number of indirect predictor lookups. (Count)
system.cpu.branchPred.indirectHits              37872                       # Number of indirect target hits. (Count)
system.cpu.branchPred.indirectMisses             8385                       # Number of indirect misses. (Count)
system.cpu.branchPred.indirectMispredicted         1572                       # Number of mispredicted indirect branches. (Count)
system.cpu.commit.commitSquashedInsts         3589705                       # The number of squashed insts skipped by commit (Count)
system.cpu.commit.commitNonSpecStalls           28854                       # The number of times commit has been forced to stall to communicate backwards (Count)
system.cpu.commit.branchMispredicts             78842                       # The number of times a branch was mispredicted (Count)
system.cpu.commit.numCommittedDist::samples      8810466                       # Number of insts commited each cycle (Count)
system.cpu.commit.numCommittedDist::mean     2.801417                       # Number of insts commited each cycle (Count)
system.cpu.commit.numCommittedDist::stdev     2.960348                       # Number of insts commited each cycle (Count)
system.cpu.commit.numCommittedDist::underflows            0      0.00%      0.00% # Number of insts commited each cycle (Count)
system.cpu.commit.numCommittedDist::0         3017875     34.25%     34.25% # Number of insts commited each cycle (Count)
system.cpu.commit.numCommittedDist::1         1191359     13.52%     47.78% # Number of insts commited each cycle (Count)
system.cpu.commit.numCommittedDist::2          473000      5.37%     53.14% # Number of insts commited each cycle (Count)
system.cpu.commit.numCommittedDist::3         1516154     17.21%     70.35% # Number of insts commited each cycle (Count)
system.cpu.commit.numCommittedDist::4          275709      3.13%     73.48% # Number of insts commited each cycle (Count)
system.cpu.commit.numCommittedDist::5          351711      3.99%     77.47% # Number of insts commited each cycle (Count)
system.cpu.commit.numCommittedDist::6          272621      3.09%     80.57% # Number of insts commited each cycle (Count)
system.cpu.commit.numCommittedDist::7          197446      2.24%     82.81% # Number of insts commited each cycle (Count)
system.cpu.commit.numCommittedDist::8         1514591     17.19%    100.00% # Number of insts commited each cycle (Count)
system.cpu.commit.numCommittedDist::overflows            0      0.00%    100.00% # Number of insts commited each cycle (Count)
system.cpu.commit.numCommittedDist::min_value            0                       # Number of insts commited each cycle (Count)
system.cpu.commit.numCommittedDist::max_value            8                       # Number of insts commited each cycle (Count)
system.cpu.commit.numCommittedDist::total      8810466                       # Number of insts commited each cycle (Count)
system.cpu.commit.instsCommitted             12961815                       # Number of instructions committed (Count)
system.cpu.commit.opsCommitted               24681788                       # Number of ops (including micro ops) committed (Count)
system.cpu.commit.memRefs                     3363185                       # Number of memory references committed (Count)
system.cpu.commit.loads                       2359138                       # Number of loads committed (Count)
system.cpu.commit.amos                              0                       # Number of atomic instructions committed (Count)
system.cpu.commit.membars                       18576                       # Number of memory barriers committed (Count)
system.cpu.commit.branches                    3180784                       # Number of branches committed (Count)
system.cpu.commit.vectorInstructions                0                       # Number of committed Vector instructions. (Count)
system.cpu.commit.floating                      94235                       # Number of committed floating point instructions. (Count)
system.cpu.commit.integer                    24483008                       # Number of committed integer instructions. (Count)
system.cpu.commit.functionCalls                 44799                       # Number of function calls committed. (Count)
system.cpu.commit.committedInstType_0::No_OpClass       113729      0.46%      0.46% # Class of committed instruction (Count)
system.cpu.commit.committedInstType_0::IntAlu     20986641     85.03%     85.49% # Class of committed instruction (Count)
system.cpu.commit.committedInstType_0::IntMult       120804      0.49%     85.98% # Class of committed instruction (Count)
system.cpu.commit.committedInstType_0::IntDiv        40397      0.16%     86.14% # Class of committed instruction (Count)
system.cpu.commit.committedInstType_0::FloatAdd         6140      0.02%     86.17% # Class of committed instruction (Count)
system.cpu.commit.committedInstType_0::FloatCmp            0      0.00%     86.17% # Class of committed instruction (Count)
system.cpu.commit.committedInstType_0::FloatCvt         1760      0.01%     86.17% # Class of committed instruction (Count)
system.cpu.commit.committedInstType_0::FloatMult            0      0.00%     86.17% # Class of committed instruction (Count)
system.cpu.commit.committedInstType_0::FloatMultAcc            0      0.00%     86.17% # Class of committed instruction (Count)
system.cpu.commit.committedInstType_0::FloatDiv            0      0.00%     86.17% # Class of committed instruction (Count)
system.cpu.commit.committedInstType_0::FloatMisc            0      0.00%     86.17% # Class of committed instruction (Count)
system.cpu.commit.committedInstType_0::FloatSqrt            0      0.00%     86.17% # Class of committed instruction (Count)
system.cpu.commit.committedInstType_0::SimdAdd         7208      0.03%     86.20% # Class of committed instruction (Count)
system.cpu.commit.committedInstType_0::SimdAddAcc            0      0.00%     86.20% # Class of committed instruction (Count)
system.cpu.commit.committedInstType_0::SimdAlu        13141      0.05%     86.26% # Class of committed instruction (Count)
system.cpu.commit.committedInstType_0::SimdCmp            6      0.00%     86.26% # Class of committed instruction (Count)
system.cpu.commit.committedInstType_0::SimdCvt        14800      0.06%     86.32% # Class of committed instruction (Count)
system.cpu.commit.committedInstType_0::SimdMisc        12913      0.05%     86.37% # Class of committed instruction (Count)
system.cpu.commit.committedInstType_0::SimdMult            0      0.00%     86.37% # Class of committed instruction (Count)
system.cpu.commit.committedInstType_0::SimdMultAcc            0      0.00%     86.37% # Class of committed instruction (Count)
system.cpu.commit.committedInstType_0::SimdShift         1052      0.00%     86.37% # Class of committed instruction (Count)
system.cpu.commit.committedInstType_0::SimdShiftAcc            0      0.00%     86.37% # Class of committed instruction (Count)
system.cpu.commit.committedInstType_0::SimdDiv            0      0.00%     86.37% # Class of committed instruction (Count)
system.cpu.commit.committedInstType_0::SimdSqrt            0      0.00%     86.37% # Class of committed instruction (Count)
system.cpu.commit.committedInstType_0::SimdFloatAdd            4      0.00%     86.37% # Class of committed instruction (Count)
system.cpu.commit.committedInstType_0::SimdFloatAlu            0      0.00%     86.37% # Class of committed instruction (Count)
system.cpu.commit.committedInstType_0::SimdFloatCmp            0      0.00%     86.37% # Class of committed instruction (Count)
system.cpu.commit.committedInstType_0::SimdFloatCvt            6      0.00%     86.37% # Class of committed instruction (Count)
system.cpu.commit.committedInstType_0::SimdFloatDiv            2      0.00%     86.37% # Class of committed instruction (Count)
system.cpu.commit.committedInstType_0::SimdFloatMisc            0      0.00%     86.37% # Class of committed instruction (Count)
system.cpu.commit.committedInstType_0::SimdFloatMult            0      0.00%     86.37% # Class of committed instruction (Count)
system.cpu.commit.committedInstType_0::SimdFloatMultAcc            0      0.00%     86.37% # Class of committed instruction (Count)
system.cpu.commit.committedInstType_0::SimdFloatSqrt            0      0.00%     86.37% # Class of committed instruction (Count)
system.cpu.commit.committedInstType_0::SimdReduceAdd            0      0.00%     86.37% # Class of committed instruction (Count)
system.cpu.commit.committedInstType_0::SimdReduceAlu            0      0.00%     86.37% # Class of committed instruction (Count)
system.cpu.commit.committedInstType_0::SimdReduceCmp            0      0.00%     86.37% # Class of committed instruction (Count)
system.cpu.commit.committedInstType_0::SimdFloatReduceAdd            0      0.00%     86.37% # Class of committed instruction (Count)
system.cpu.commit.committedInstType_0::SimdFloatReduceCmp            0      0.00%     86.37% # Class of committed instruction (Count)
system.cpu.commit.committedInstType_0::SimdAes            0      0.00%     86.37% # Class of committed instruction (Count)
system.cpu.commit.committedInstType_0::SimdAesMix            0      0.00%     86.37% # Class of committed instruction (Count)
system.cpu.commit.committedInstType_0::SimdSha1Hash            0      0.00%     86.37% # Class of committed instruction (Count)
system.cpu.commit.committedInstType_0::SimdSha1Hash2            0      0.00%     86.37% # Class of committed instruction (Count)
system.cpu.commit.committedInstType_0::SimdSha256Hash            0      0.00%     86.37% # Class of committed instruction (Count)
system.cpu.commit.committedInstType_0::SimdSha256Hash2            0      0.00%     86.37% # Class of committed instruction (Count)
system.cpu.commit.committedInstType_0::SimdShaSigma2            0      0.00%     86.37% # Class of committed instruction (Count)
system.cpu.commit.committedInstType_0::SimdShaSigma3            0      0.00%     86.37% # Class of committed instruction (Count)
system.cpu.commit.committedInstType_0::SimdPredAlu            0      0.00%     86.37% # Class of committed instruction (Count)
system.cpu.commit.committedInstType_0::MemRead      2339966      9.48%     95.85% # Class of committed instruction (Count)
system.cpu.commit.committedInstType_0::MemWrite       989082      4.01%     99.86% # Class of committed instruction (Count)
system.cpu.commit.committedInstType_0::FloatMemRead        19172      0.08%     99.94% # Class of committed instruction (Count)
system.cpu.commit.committedInstType_0::FloatMemWrite        14965      0.06%    100.00% # Class of committed instruction (Count)
system.cpu.commit.committedInstType_0::IprAccess            0      0.00%    100.00% # Class of committed instruction (Count)
system.cpu.commit.committedInstType_0::InstPrefetch            0      0.00%    100.00% # Class of committed instruction (Count)
system.cpu.commit.committedInstType_0::total     24681788                       # Class of committed instruction (Count)
system.cpu.commit.commitEligibleSamples       1514591                       # number cycles where commit BW limit reached (Cycle)
system.cpu.dcache.demandHits::cpu.data        3486275                       # number of demand (read+write) hits (Count)
system.cpu.dcache.demandHits::total           3486275                       # number of demand (read+write) hits (Count)
system.cpu.dcache.overallHits::cpu.data       3486275                       # number of overall hits (Count)
system.cpu.dcache.overallHits::total          3486275                       # number of overall hits (Count)
system.cpu.dcache.demandMisses::cpu.data        91995                       # number of demand (read+write) misses (Count)
system.cpu.dcache.demandMisses::total           91995                       # number of demand (read+write) misses (Count)
system.cpu.dcache.overallMisses::cpu.data        91995                       # number of overall misses (Count)
system.cpu.dcache.overallMisses::total          91995                       # number of overall misses (Count)
system.cpu.dcache.demandMissLatency::cpu.data   4694322999                       # number of demand (read+write) miss ticks (Tick)
system.cpu.dcache.demandMissLatency::total   4694322999                       # number of demand (read+write) miss ticks (Tick)
system.cpu.dcache.overallMissLatency::cpu.data   4694322999                       # number of overall miss ticks (Tick)
system.cpu.dcache.overallMissLatency::total   4694322999                       # number of overall miss ticks (Tick)
system.cpu.dcache.demandAccesses::cpu.data      3578270                       # number of demand (read+write) accesses (Count)
system.cpu.dcache.demandAccesses::total       3578270                       # number of demand (read+write) accesses (Count)
system.cpu.dcache.overallAccesses::cpu.data      3578270                       # number of overall (read+write) accesses (Count)
system.cpu.dcache.overallAccesses::total      3578270                       # number of overall (read+write) accesses (Count)
system.cpu.dcache.demandMissRate::cpu.data     0.025709                       # miss rate for demand accesses (Ratio)
system.cpu.dcache.demandMissRate::total      0.025709                       # miss rate for demand accesses (Ratio)
system.cpu.dcache.overallMissRate::cpu.data     0.025709                       # miss rate for overall accesses (Ratio)
system.cpu.dcache.overallMissRate::total     0.025709                       # miss rate for overall accesses (Ratio)
system.cpu.dcache.demandAvgMissLatency::cpu.data 51028.023251                       # average overall miss latency ((Cycle/Count))
system.cpu.dcache.demandAvgMissLatency::total 51028.023251                       # average overall miss latency ((Cycle/Count))
system.cpu.dcache.overallAvgMissLatency::cpu.data 51028.023251                       # average overall miss latency ((Cycle/Count))
system.cpu.dcache.overallAvgMissLatency::total 51028.023251                       # average overall miss latency ((Cycle/Count))
system.cpu.dcache.blockedCycles::no_mshrs        20971                       # number of cycles access was blocked (Cycle)
system.cpu.dcache.blockedCycles::no_targets            4                       # number of cycles access was blocked (Cycle)
system.cpu.dcache.blockedCauses::no_mshrs          544                       # number of times access was blocked (Count)
system.cpu.dcache.blockedCauses::no_targets            2                       # number of times access was blocked (Count)
system.cpu.dcache.avgBlocked::no_mshrs      38.549632                       # average number of cycles each access was blocked ((Cycle/Count))
system.cpu.dcache.avgBlocked::no_targets            2                       # average number of cycles each access was blocked ((Cycle/Count))
system.cpu.dcache.writebacks::writebacks        16314                       # number of writebacks (Count)
system.cpu.dcache.writebacks::total             16314                       # number of writebacks (Count)
system.cpu.dcache.demandMshrHits::cpu.data        59037                       # number of demand (read+write) MSHR hits (Count)
system.cpu.dcache.demandMshrHits::total         59037                       # number of demand (read+write) MSHR hits (Count)
system.cpu.dcache.overallMshrHits::cpu.data        59037                       # number of overall MSHR hits (Count)
system.cpu.dcache.overallMshrHits::total        59037                       # number of overall MSHR hits (Count)
system.cpu.dcache.demandMshrMisses::cpu.data        32958                       # number of demand (read+write) MSHR misses (Count)
system.cpu.dcache.demandMshrMisses::total        32958                       # number of demand (read+write) MSHR misses (Count)
system.cpu.dcache.overallMshrMisses::cpu.data        32958                       # number of overall MSHR misses (Count)
system.cpu.dcache.overallMshrMisses::total        32958                       # number of overall MSHR misses (Count)
system.cpu.dcache.demandMshrMissLatency::cpu.data   1559629999                       # number of demand (read+write) MSHR miss ticks (Tick)
system.cpu.dcache.demandMshrMissLatency::total   1559629999                       # number of demand (read+write) MSHR miss ticks (Tick)
system.cpu.dcache.overallMshrMissLatency::cpu.data   1559629999                       # number of overall MSHR miss ticks (Tick)
system.cpu.dcache.overallMshrMissLatency::total   1559629999                       # number of overall MSHR miss ticks (Tick)
system.cpu.dcache.demandMshrMissRate::cpu.data     0.009211                       # mshr miss ratio for demand accesses (Ratio)
system.cpu.dcache.demandMshrMissRate::total     0.009211                       # mshr miss ratio for demand accesses (Ratio)
system.cpu.dcache.overallMshrMissRate::cpu.data     0.009211                       # mshr miss ratio for overall accesses (Ratio)
system.cpu.dcache.overallMshrMissRate::total     0.009211                       # mshr miss ratio for overall accesses (Ratio)
system.cpu.dcache.demandAvgMshrMissLatency::cpu.data 47321.742794                       # average overall mshr miss latency ((Cycle/Count))
system.cpu.dcache.demandAvgMshrMissLatency::total 47321.742794                       # average overall mshr miss latency ((Cycle/Count))
system.cpu.dcache.overallAvgMshrMissLatency::cpu.data 47321.742794                       # average overall mshr miss latency ((Cycle/Count))
system.cpu.dcache.overallAvgMshrMissLatency::total 47321.742794                       # average overall mshr miss latency ((Cycle/Count))
system.cpu.dcache.replacements                  24765                       # number of replacements (Count)
system.cpu.dcache.ReadReq.hits::cpu.data      2500186                       # number of ReadReq hits (Count)
system.cpu.dcache.ReadReq.hits::total         2500186                       # number of ReadReq hits (Count)
system.cpu.dcache.ReadReq.misses::cpu.data        74024                       # number of ReadReq misses (Count)
system.cpu.dcache.ReadReq.misses::total         74024                       # number of ReadReq misses (Count)
system.cpu.dcache.ReadReq.missLatency::cpu.data   3847747500                       # number of ReadReq miss ticks (Tick)
system.cpu.dcache.ReadReq.missLatency::total   3847747500                       # number of ReadReq miss ticks (Tick)
system.cpu.dcache.ReadReq.accesses::cpu.data      2574210                       # number of ReadReq accesses(hits+misses) (Count)
system.cpu.dcache.ReadReq.accesses::total      2574210                       # number of ReadReq accesses(hits+misses) (Count)
system.cpu.dcache.ReadReq.missRate::cpu.data     0.028756                       # miss rate for ReadReq accesses (Ratio)
system.cpu.dcache.ReadReq.missRate::total     0.028756                       # miss rate for ReadReq accesses (Ratio)
system.cpu.dcache.ReadReq.avgMissLatency::cpu.data 51979.729547                       # average ReadReq miss latency ((Tick/Count))
system.cpu.dcache.ReadReq.avgMissLatency::total 51979.729547                       # average ReadReq miss latency ((Tick/Count))
system.cpu.dcache.ReadReq.mshrHits::cpu.data        59032                       # number of ReadReq MSHR hits (Count)
system.cpu.dcache.ReadReq.mshrHits::total        59032                       # number of ReadReq MSHR hits (Count)
system.cpu.dcache.ReadReq.mshrMisses::cpu.data        14992                       # number of ReadReq MSHR misses (Count)
system.cpu.dcache.ReadReq.mshrMisses::total        14992                       # number of ReadReq MSHR misses (Count)
system.cpu.dcache.ReadReq.mshrMissLatency::cpu.data    731234000                       # number of ReadReq MSHR miss ticks (Tick)
system.cpu.dcache.ReadReq.mshrMissLatency::total    731234000                       # number of ReadReq MSHR miss ticks (Tick)
system.cpu.dcache.ReadReq.mshrMissRate::cpu.data     0.005824                       # mshr miss rate for ReadReq accesses (Ratio)
system.cpu.dcache.ReadReq.mshrMissRate::total     0.005824                       # mshr miss rate for ReadReq accesses (Ratio)
system.cpu.dcache.ReadReq.avgMshrMissLatency::cpu.data 48774.946638                       # average ReadReq mshr miss latency ((Tick/Count))
system.cpu.dcache.ReadReq.avgMshrMissLatency::total 48774.946638                       # average ReadReq mshr miss latency ((Tick/Count))
system.cpu.dcache.WriteReq.hits::cpu.data       986089                       # number of WriteReq hits (Count)
system.cpu.dcache.WriteReq.hits::total         986089                       # number of WriteReq hits (Count)
system.cpu.dcache.WriteReq.misses::cpu.data        17971                       # number of WriteReq misses (Count)
system.cpu.dcache.WriteReq.misses::total        17971                       # number of WriteReq misses (Count)
system.cpu.dcache.WriteReq.missLatency::cpu.data    846575499                       # number of WriteReq miss ticks (Tick)
system.cpu.dcache.WriteReq.missLatency::total    846575499                       # number of WriteReq miss ticks (Tick)
system.cpu.dcache.WriteReq.accesses::cpu.data      1004060                       # number of WriteReq accesses(hits+misses) (Count)
system.cpu.dcache.WriteReq.accesses::total      1004060                       # number of WriteReq accesses(hits+misses) (Count)
system.cpu.dcache.WriteReq.missRate::cpu.data     0.017898                       # miss rate for WriteReq accesses (Ratio)
system.cpu.dcache.WriteReq.missRate::total     0.017898                       # miss rate for WriteReq accesses (Ratio)
system.cpu.dcache.WriteReq.avgMissLatency::cpu.data 47107.868177                       # average WriteReq miss latency ((Tick/Count))
system.cpu.dcache.WriteReq.avgMissLatency::total 47107.868177                       # average WriteReq miss latency ((Tick/Count))
system.cpu.dcache.WriteReq.mshrHits::cpu.data            5                       # number of WriteReq MSHR hits (Count)
system.cpu.dcache.WriteReq.mshrHits::total            5                       # number of WriteReq MSHR hits (Count)
system.cpu.dcache.WriteReq.mshrMisses::cpu.data        17966                       # number of WriteReq MSHR misses (Count)
system.cpu.dcache.WriteReq.mshrMisses::total        17966                       # number of WriteReq MSHR misses (Count)
system.cpu.dcache.WriteReq.mshrMissLatency::cpu.data    828395999                       # number of WriteReq MSHR miss ticks (Tick)
system.cpu.dcache.WriteReq.mshrMissLatency::total    828395999                       # number of WriteReq MSHR miss ticks (Tick)
system.cpu.dcache.WriteReq.mshrMissRate::cpu.data     0.017893                       # mshr miss rate for WriteReq accesses (Ratio)
system.cpu.dcache.WriteReq.mshrMissRate::total     0.017893                       # mshr miss rate for WriteReq accesses (Ratio)
system.cpu.dcache.WriteReq.avgMshrMissLatency::cpu.data 46109.094901                       # average WriteReq mshr miss latency ((Tick/Count))
system.cpu.dcache.WriteReq.avgMshrMissLatency::total 46109.094901                       # average WriteReq mshr miss latency ((Tick/Count))
system.cpu.dcache.power_state.pwrStateResidencyTicks::UNDEFINED   4734390000                       # Cumulative time (in ticks) in various power states (Tick)
system.cpu.dcache.tags.tagsInUse          7327.839147                       # Average ticks per tags in use ((Tick/Count))
system.cpu.dcache.tags.totalRefs              3519234                       # Total number of references to valid blocks. (Count)
system.cpu.dcache.tags.sampledRefs              32957                       # Sample count of references to valid blocks. (Count)
system.cpu.dcache.tags.avgRefs             106.782596                       # Average number of references to valid blocks. ((Count/Count))
system.cpu.dcache.tags.warmupTick              132500                       # The tick when the warmup percentage was hit. (Tick)
system.cpu.dcache.tags.occupancies::cpu.data  7327.839147                       # Average occupied blocks per tick, per requestor ((Count/Tick))
system.cpu.dcache.tags.avgOccs::cpu.data     0.894512                       # Average percentage of cache occupancy ((Ratio/Tick))
system.cpu.dcache.tags.avgOccs::total        0.894512                       # Average percentage of cache occupancy ((Ratio/Tick))
system.cpu.dcache.tags.occupanciesTaskId::1024         8192                       # Occupied blocks per task id (Count)
system.cpu.dcache.tags.ageTaskId_1024::0          158                       # Occupied blocks per task id, per block age (Count)
system.cpu.dcache.tags.ageTaskId_1024::1          348                       # Occupied blocks per task id, per block age (Count)
system.cpu.dcache.tags.ageTaskId_1024::2         4413                       # Occupied blocks per task id, per block age (Count)
system.cpu.dcache.tags.ageTaskId_1024::3         3273                       # Occupied blocks per task id, per block age (Count)
system.cpu.dcache.tags.ratioOccsTaskId::1024            1                       # Ratio of occupied blocks and all blocks, per task id (Ratio)
system.cpu.dcache.tags.tagAccesses            7189497                       # Number of tag accesses (Count)
system.cpu.dcache.tags.dataAccesses           7189497                       # Number of data accesses (Count)
system.cpu.dcache.tags.power_state.pwrStateResidencyTicks::UNDEFINED   4734390000                       # Cumulative time (in ticks) in various power states (Tick)
system.cpu.decode.idleCycles                  1953033                       # Number of cycles decode is idle (Cycle)
system.cpu.decode.blockedCycles               2581461                       # Number of cycles decode is blocked (Cycle)
system.cpu.decode.runCycles                   4344617                       # Number of cycles decode is running (Cycle)
system.cpu.decode.unblockCycles                348266                       # Number of cycles decode is unblocking (Cycle)
system.cpu.decode.squashCycles                  79633                       # Number of cycles decode is squashing (Cycle)
system.cpu.decode.branchResolved              2055860                       # Number of times decode resolved a branch (Count)
system.cpu.decode.branchMispred                  1511                       # Number of times decode detected a branch misprediction (Count)
system.cpu.decode.decodedInsts               29347113                       # Number of instructions handled by decode (Count)
system.cpu.decode.squashedInsts                  7374                       # Number of squashed instructions handled by decode (Count)
system.cpu.dtb_walker_cache.blockedCycles::no_mshrs            0                       # number of cycles access was blocked (Cycle)
system.cpu.dtb_walker_cache.blockedCycles::no_targets            0                       # number of cycles access was blocked (Cycle)
system.cpu.dtb_walker_cache.blockedCauses::no_mshrs            0                       # number of times access was blocked (Count)
system.cpu.dtb_walker_cache.blockedCauses::no_targets            0                       # number of times access was blocked (Count)
system.cpu.dtb_walker_cache.avgBlocked::no_mshrs          nan                       # average number of cycles each access was blocked ((Cycle/Count))
system.cpu.dtb_walker_cache.avgBlocked::no_targets          nan                       # average number of cycles each access was blocked ((Cycle/Count))
system.cpu.dtb_walker_cache.replacements            0                       # number of replacements (Count)
system.cpu.dtb_walker_cache.power_state.pwrStateResidencyTicks::UNDEFINED   4734390000                       # Cumulative time (in ticks) in various power states (Tick)
system.cpu.dtb_walker_cache.tags.tagsInUse            0                       # Average ticks per tags in use ((Tick/Count))
system.cpu.dtb_walker_cache.tags.totalRefs            0                       # Total number of references to valid blocks. (Count)
system.cpu.dtb_walker_cache.tags.sampledRefs            0                       # Sample count of references to valid blocks. (Count)
system.cpu.dtb_walker_cache.tags.avgRefs          nan                       # Average number of references to valid blocks. ((Count/Count))
system.cpu.dtb_walker_cache.tags.warmupTick            0                       # The tick when the warmup percentage was hit. (Tick)
system.cpu.dtb_walker_cache.tags.tagAccesses            0                       # Number of tag accesses (Count)
system.cpu.dtb_walker_cache.tags.dataAccesses            0                       # Number of data accesses (Count)
system.cpu.dtb_walker_cache.tags.power_state.pwrStateResidencyTicks::UNDEFINED   4734390000                       # Cumulative time (in ticks) in various power states (Tick)
system.cpu.fetch.icacheStallCycles            1955843                       # Number of cycles fetch is stalled on an Icache miss (Cycle)
system.cpu.fetch.insts                       15985169                       # Number of instructions fetch has processed (Count)
system.cpu.fetch.branches                     3790291                       # Number of branches that fetch encountered (Count)
system.cpu.fetch.predictedBranches            2197940                       # Number of branches that fetch has predicted taken (Count)
system.cpu.fetch.cycles                       7265494                       # Number of cycles fetch has run and was not squashing or blocked (Cycle)
system.cpu.fetch.squashCycles                  162236                       # Number of cycles fetch has spent squashing (Cycle)
system.cpu.fetch.miscStallCycles                  548                       # Number of cycles fetch has spent waiting on interrupts, or bad addresses, or out of MSHRs (Cycle)
system.cpu.fetch.pendingTrapStallCycles          3963                       # Number of stall cycles due to pending traps (Cycle)
system.cpu.fetch.pendingQuiesceStallCycles            9                       # Number of stall cycles due to pending quiesce instructions (Cycle)
system.cpu.fetch.icacheWaitRetryStallCycles           35                       # Number of stall cycles due to full MSHR (Cycle)
system.cpu.fetch.cacheLines                   1850678                       # Number of cache lines fetched (Count)
system.cpu.fetch.icacheSquashes                 17330                       # Number of outstanding Icache misses that were squashed (Count)
system.cpu.fetch.nisnDist::samples            9307010                       # Number of instructions fetched each cycle (Total) (Count)
system.cpu.fetch.nisnDist::mean              3.236646                       # Number of instructions fetched each cycle (Total) (Count)
system.cpu.fetch.nisnDist::stdev             3.432889                       # Number of instructions fetched each cycle (Total) (Count)
system.cpu.fetch.nisnDist::underflows               0      0.00%      0.00% # Number of instructions fetched each cycle (Total) (Count)
system.cpu.fetch.nisnDist::0                  4199548     45.12%     45.12% # Number of instructions fetched each cycle (Total) (Count)
system.cpu.fetch.nisnDist::1                   281701      3.03%     48.15% # Number of instructions fetched each cycle (Total) (Count)
system.cpu.fetch.nisnDist::2                   381640      4.10%     52.25% # Number of instructions fetched each cycle (Total) (Count)
system.cpu.fetch.nisnDist::3                   583330      6.27%     58.52% # Number of instructions fetched each cycle (Total) (Count)
system.cpu.fetch.nisnDist::4                   284655      3.06%     61.58% # Number of instructions fetched each cycle (Total) (Count)
system.cpu.fetch.nisnDist::5                   285018      3.06%     64.64% # Number of instructions fetched each cycle (Total) (Count)
system.cpu.fetch.nisnDist::6                   635924      6.83%     71.47% # Number of instructions fetched each cycle (Total) (Count)
system.cpu.fetch.nisnDist::7                   292277      3.14%     74.61% # Number of instructions fetched each cycle (Total) (Count)
system.cpu.fetch.nisnDist::8                  2362917     25.39%    100.00% # Number of instructions fetched each cycle (Total) (Count)
system.cpu.fetch.nisnDist::overflows                0      0.00%    100.00% # Number of instructions fetched each cycle (Total) (Count)
system.cpu.fetch.nisnDist::min_value                0                       # Number of instructions fetched each cycle (Total) (Count)
system.cpu.fetch.nisnDist::max_value                8                       # Number of instructions fetched each cycle (Total) (Count)
system.cpu.fetch.nisnDist::total              9307010                       # Number of instructions fetched each cycle (Total) (Count)
system.cpu.fetch.branchRate                  0.400293                       # Number of branch fetches per cycle (Ratio)
system.cpu.fetch.rate                        1.688197                       # Number of inst fetches per cycle ((Count/Cycle))
system.cpu.icache.demandHits::cpu.inst        1846179                       # number of demand (read+write) hits (Count)
system.cpu.icache.demandHits::total           1846179                       # number of demand (read+write) hits (Count)
system.cpu.icache.overallHits::cpu.inst       1846179                       # number of overall hits (Count)
system.cpu.icache.overallHits::total          1846179                       # number of overall hits (Count)
system.cpu.icache.demandMisses::cpu.inst         4499                       # number of demand (read+write) misses (Count)
system.cpu.icache.demandMisses::total            4499                       # number of demand (read+write) misses (Count)
system.cpu.icache.overallMisses::cpu.inst         4499                       # number of overall misses (Count)
system.cpu.icache.overallMisses::total           4499                       # number of overall misses (Count)
system.cpu.icache.demandMissLatency::cpu.inst    218634999                       # number of demand (read+write) miss ticks (Tick)
system.cpu.icache.demandMissLatency::total    218634999                       # number of demand (read+write) miss ticks (Tick)
system.cpu.icache.overallMissLatency::cpu.inst    218634999                       # number of overall miss ticks (Tick)
system.cpu.icache.overallMissLatency::total    218634999                       # number of overall miss ticks (Tick)
system.cpu.icache.demandAccesses::cpu.inst      1850678                       # number of demand (read+write) accesses (Count)
system.cpu.icache.demandAccesses::total       1850678                       # number of demand (read+write) accesses (Count)
system.cpu.icache.overallAccesses::cpu.inst      1850678                       # number of overall (read+write) accesses (Count)
system.cpu.icache.overallAccesses::total      1850678                       # number of overall (read+write) accesses (Count)
system.cpu.icache.demandMissRate::cpu.inst     0.002431                       # miss rate for demand accesses (Ratio)
system.cpu.icache.demandMissRate::total      0.002431                       # miss rate for demand accesses (Ratio)
system.cpu.icache.overallMissRate::cpu.inst     0.002431                       # miss rate for overall accesses (Ratio)
system.cpu.icache.overallMissRate::total     0.002431                       # miss rate for overall accesses (Ratio)
system.cpu.icache.demandAvgMissLatency::cpu.inst 48596.354523                       # average overall miss latency ((Cycle/Count))
system.cpu.icache.demandAvgMissLatency::total 48596.354523                       # average overall miss latency ((Cycle/Count))
system.cpu.icache.overallAvgMissLatency::cpu.inst 48596.354523                       # average overall miss latency ((Cycle/Count))
system.cpu.icache.overallAvgMissLatency::total 48596.354523                       # average overall miss latency ((Cycle/Count))
system.cpu.icache.blockedCycles::no_mshrs          547                       # number of cycles access was blocked (Cycle)
system.cpu.icache.blockedCycles::no_targets            0                       # number of cycles access was blocked (Cycle)
system.cpu.icache.blockedCauses::no_mshrs           11                       # number of times access was blocked (Count)
system.cpu.icache.blockedCauses::no_targets            0                       # number of times access was blocked (Count)
system.cpu.icache.avgBlocked::no_mshrs      49.727273                       # average number of cycles each access was blocked ((Cycle/Count))
system.cpu.icache.avgBlocked::no_targets          nan                       # average number of cycles each access was blocked ((Cycle/Count))
system.cpu.icache.writebacks::writebacks         3124                       # number of writebacks (Count)
system.cpu.icache.writebacks::total              3124                       # number of writebacks (Count)
system.cpu.icache.demandMshrHits::cpu.inst          862                       # number of demand (read+write) MSHR hits (Count)
system.cpu.icache.demandMshrHits::total           862                       # number of demand (read+write) MSHR hits (Count)
system.cpu.icache.overallMshrHits::cpu.inst          862                       # number of overall MSHR hits (Count)
system.cpu.icache.overallMshrHits::total          862                       # number of overall MSHR hits (Count)
system.cpu.icache.demandMshrMisses::cpu.inst         3637                       # number of demand (read+write) MSHR misses (Count)
system.cpu.icache.demandMshrMisses::total         3637                       # number of demand (read+write) MSHR misses (Count)
system.cpu.icache.overallMshrMisses::cpu.inst         3637                       # number of overall MSHR misses (Count)
system.cpu.icache.overallMshrMisses::total         3637                       # number of overall MSHR misses (Count)
system.cpu.icache.demandMshrMissLatency::cpu.inst    177580999                       # number of demand (read+write) MSHR miss ticks (Tick)
system.cpu.icache.demandMshrMissLatency::total    177580999                       # number of demand (read+write) MSHR miss ticks (Tick)
system.cpu.icache.overallMshrMissLatency::cpu.inst    177580999                       # number of overall MSHR miss ticks (Tick)
system.cpu.icache.overallMshrMissLatency::total    177580999                       # number of overall MSHR miss ticks (Tick)
system.cpu.icache.demandMshrMissRate::cpu.inst     0.001965                       # mshr miss ratio for demand accesses (Ratio)
system.cpu.icache.demandMshrMissRate::total     0.001965                       # mshr miss ratio for demand accesses (Ratio)
system.cpu.icache.overallMshrMissRate::cpu.inst     0.001965                       # mshr miss ratio for overall accesses (Ratio)
system.cpu.icache.overallMshrMissRate::total     0.001965                       # mshr miss ratio for overall accesses (Ratio)
system.cpu.icache.demandAvgMshrMissLatency::cpu.inst 48826.230135                       # average overall mshr miss latency ((Cycle/Count))
system.cpu.icache.demandAvgMshrMissLatency::total 48826.230135                       # average overall mshr miss latency ((Cycle/Count))
system.cpu.icache.overallAvgMshrMissLatency::cpu.inst 48826.230135                       # average overall mshr miss latency ((Cycle/Count))
system.cpu.icache.overallAvgMshrMissLatency::total 48826.230135                       # average overall mshr miss latency ((Cycle/Count))
system.cpu.icache.replacements                   3124                       # number of replacements (Count)
system.cpu.icache.ReadReq.hits::cpu.inst      1846179                       # number of ReadReq hits (Count)
system.cpu.icache.ReadReq.hits::total         1846179                       # number of ReadReq hits (Count)
system.cpu.icache.ReadReq.misses::cpu.inst         4499                       # number of ReadReq misses (Count)
system.cpu.icache.ReadReq.misses::total          4499                       # number of ReadReq misses (Count)
system.cpu.icache.ReadReq.missLatency::cpu.inst    218634999                       # number of ReadReq miss ticks (Tick)
system.cpu.icache.ReadReq.missLatency::total    218634999                       # number of ReadReq miss ticks (Tick)
system.cpu.icache.ReadReq.accesses::cpu.inst      1850678                       # number of ReadReq accesses(hits+misses) (Count)
system.cpu.icache.ReadReq.accesses::total      1850678                       # number of ReadReq accesses(hits+misses) (Count)
system.cpu.icache.ReadReq.missRate::cpu.inst     0.002431                       # miss rate for ReadReq accesses (Ratio)
system.cpu.icache.ReadReq.missRate::total     0.002431                       # miss rate for ReadReq accesses (Ratio)
system.cpu.icache.ReadReq.avgMissLatency::cpu.inst 48596.354523                       # average ReadReq miss latency ((Tick/Count))
system.cpu.icache.ReadReq.avgMissLatency::total 48596.354523                       # average ReadReq miss latency ((Tick/Count))
system.cpu.icache.ReadReq.mshrHits::cpu.inst          862                       # number of ReadReq MSHR hits (Count)
system.cpu.icache.ReadReq.mshrHits::total          862                       # number of ReadReq MSHR hits (Count)
system.cpu.icache.ReadReq.mshrMisses::cpu.inst         3637                       # number of ReadReq MSHR misses (Count)
system.cpu.icache.ReadReq.mshrMisses::total         3637                       # number of ReadReq MSHR misses (Count)
system.cpu.icache.ReadReq.mshrMissLatency::cpu.inst    177580999                       # number of ReadReq MSHR miss ticks (Tick)
system.cpu.icache.ReadReq.mshrMissLatency::total    177580999                       # number of ReadReq MSHR miss ticks (Tick)
system.cpu.icache.ReadReq.mshrMissRate::cpu.inst     0.001965                       # mshr miss rate for ReadReq accesses (Ratio)
system.cpu.icache.ReadReq.mshrMissRate::total     0.001965                       # mshr miss rate for ReadReq accesses (Ratio)
system.cpu.icache.ReadReq.avgMshrMissLatency::cpu.inst 48826.230135                       # average ReadReq mshr miss latency ((Tick/Count))
system.cpu.icache.ReadReq.avgMshrMissLatency::total 48826.230135                       # average ReadReq mshr miss latency ((Tick/Count))
system.cpu.icache.power_state.pwrStateResidencyTicks::UNDEFINED   4734390000                       # Cumulative time (in ticks) in various power states (Tick)
system.cpu.icache.tags.tagsInUse           503.981922                       # Average ticks per tags in use ((Tick/Count))
system.cpu.icache.tags.totalRefs              1849815                       # Total number of references to valid blocks. (Count)
system.cpu.icache.tags.sampledRefs               3636                       # Sample count of references to valid blocks. (Count)
system.cpu.icache.tags.avgRefs             508.750000                       # Average number of references to valid blocks. ((Count/Count))
system.cpu.icache.tags.warmupTick               62500                       # The tick when the warmup percentage was hit. (Tick)
system.cpu.icache.tags.occupancies::cpu.inst   503.981922                       # Average occupied blocks per tick, per requestor ((Count/Tick))
system.cpu.icache.tags.avgOccs::cpu.inst     0.984340                       # Average percentage of cache occupancy ((Ratio/Tick))
system.cpu.icache.tags.avgOccs::total        0.984340                       # Average percentage of cache occupancy ((Ratio/Tick))
system.cpu.icache.tags.occupanciesTaskId::1024          511                       # Occupied blocks per task id (Count)
system.cpu.icache.tags.ageTaskId_1024::0          162                       # Occupied blocks per task id, per block age (Count)
system.cpu.icache.tags.ageTaskId_1024::1          247                       # Occupied blocks per task id, per block age (Count)
system.cpu.icache.tags.ageTaskId_1024::2           10                       # Occupied blocks per task id, per block age (Count)
system.cpu.icache.tags.ageTaskId_1024::3           92                       # Occupied blocks per task id, per block age (Count)
system.cpu.icache.tags.ratioOccsTaskId::1024     0.998047                       # Ratio of occupied blocks and all blocks, per task id (Ratio)
system.cpu.icache.tags.tagAccesses            3704992                       # Number of tag accesses (Count)
system.cpu.icache.tags.dataAccesses           3704992                       # Number of data accesses (Count)
system.cpu.icache.tags.power_state.pwrStateResidencyTicks::UNDEFINED   4734390000                       # Cumulative time (in ticks) in various power states (Tick)
system.cpu.iew.idleCycles                           0                       # Number of cycles IEW is idle (Cycle)
system.cpu.iew.squashCycles                     79633                       # Number of cycles IEW is squashing (Cycle)
system.cpu.iew.blockCycles                    1149064                       # Number of cycles IEW is blocking (Cycle)
system.cpu.iew.unblockCycles                    34076                       # Number of cycles IEW is unblocking (Cycle)
system.cpu.iew.dispatchedInsts               28278691                       # Number of instructions dispatched to IQ (Count)
system.cpu.iew.dispSquashedInsts                 4390                       # Number of squashed instructions skipped by dispatch (Count)
system.cpu.iew.dispLoadInsts                  2832010                       # Number of dispatched load instructions (Count)
system.cpu.iew.dispStoreInsts                 1174473                       # Number of dispatched store instructions (Count)
system.cpu.iew.dispNonSpecInsts                 21435                       # Number of dispatched non-speculative instructions (Count)
system.cpu.iew.iqFullEvents                     16966                       # Number of times the IQ has become full, causing a stall (Count)
system.cpu.iew.lsqFullEvents                    11072                       # Number of times the LSQ has become full, causing a stall (Count)
system.cpu.iew.memOrderViolationEvents            189                       # Number of memory order violations (Count)
system.cpu.iew.predictedTakenIncorrect          49499                       # Number of branches that were predicted taken incorrectly (Count)
system.cpu.iew.predictedNotTakenIncorrect        50721                       # Number of branches that were predicted not taken incorrectly (Count)
system.cpu.iew.branchMispredicts               100220                       # Number of branch mispredicts detected at execute (Count)
system.cpu.iew.instsToCommit                 26753846                       # Cumulative count of insts sent to commit (Count)
system.cpu.iew.writebackCount                26723447                       # Cumulative count of insts written-back (Count)
system.cpu.iew.producerInst                  20700436                       # Number of instructions producing a value (Count)
system.cpu.iew.consumerInst                  33939799                       # Number of instructions consuming a value (Count)
system.cpu.iew.wbRate                        2.822269                       # Insts written-back per cycle ((Count/Cycle))
system.cpu.iew.wbFanout                      0.609916                       # Average fanout of values written-back ((Count/Count))
system.cpu.interrupts.clk_domain.clock           8000                       # Clock period in ticks (Tick)
system.cpu.itb_walker_cache.blockedCycles::no_mshrs            0                       # number of cycles access was blocked (Cycle)
system.cpu.itb_walker_cache.blockedCycles::no_targets            0                       # number of cycles access was blocked (Cycle)
system.cpu.itb_walker_cache.blockedCauses::no_mshrs            0                       # number of times access was blocked (Count)
system.cpu.itb_walker_cache.blockedCauses::no_targets            0                       # number of times access was blocked (Count)
system.cpu.itb_walker_cache.avgBlocked::no_mshrs          nan                       # average number of cycles each access was blocked ((Cycle/Count))
system.cpu.itb_walker_cache.avgBlocked::no_targets          nan                       # average number of cycles each access was blocked ((Cycle/Count))
system.cpu.itb_walker_cache.replacements            0                       # number of replacements (Count)
system.cpu.itb_walker_cache.power_state.pwrStateResidencyTicks::UNDEFINED   4734390000                       # Cumulative time (in ticks) in various power states (Tick)
system.cpu.itb_walker_cache.tags.tagsInUse            0                       # Average ticks per tags in use ((Tick/Count))
system.cpu.itb_walker_cache.tags.totalRefs            0                       # Total number of references to valid blocks. (Count)
system.cpu.itb_walker_cache.tags.sampledRefs            0                       # Sample count of references to valid blocks. (Count)
system.cpu.itb_walker_cache.tags.avgRefs          nan                       # Average number of references to valid blocks. ((Count/Count))
system.cpu.itb_walker_cache.tags.warmupTick            0                       # The tick when the warmup percentage was hit. (Tick)
system.cpu.itb_walker_cache.tags.tagAccesses            0                       # Number of tag accesses (Count)
system.cpu.itb_walker_cache.tags.dataAccesses            0                       # Number of data accesses (Count)
system.cpu.itb_walker_cache.tags.power_state.pwrStateResidencyTicks::UNDEFINED   4734390000                       # Cumulative time (in ticks) in various power states (Tick)
system.cpu.lsq0.forwLoads                       52376                       # Number of loads that had data forwarded from stores (Count)
system.cpu.lsq0.squashedLoads                  472872                       # Number of loads squashed (Count)
system.cpu.lsq0.ignoredResponses                  264                       # Number of memory responses ignored because the instruction is squashed (Count)
system.cpu.lsq0.memOrderViolation                 189                       # Number of memory ordering violations (Count)
system.cpu.lsq0.squashedStores                 170426                       # Number of stores squashed (Count)
system.cpu.lsq0.rescheduledLoads                   13                       # Number of loads that were rescheduled (Count)
system.cpu.lsq0.blockedByCache                    395                       # Number of times an access to memory failed due to the cache being blocked (Count)
system.cpu.lsq0.loadToUse::samples            2359138                       # Distribution of cycle latency between the first time a load is issued and its completion (Unspecified)
system.cpu.lsq0.loadToUse::mean              5.834941                       # Distribution of cycle latency between the first time a load is issued and its completion (Unspecified)
system.cpu.lsq0.loadToUse::stdev            17.378140                       # Distribution of cycle latency between the first time a load is issued and its completion (Unspecified)
system.cpu.lsq0.loadToUse::0-9                2298668     97.44%     97.44% # Distribution of cycle latency between the first time a load is issued and its completion (Unspecified)
system.cpu.lsq0.loadToUse::10-19                  845      0.04%     97.47% # Distribution of cycle latency between the first time a load is issued and its completion (Unspecified)
system.cpu.lsq0.loadToUse::20-29                 5004      0.21%     97.68% # Distribution of cycle latency between the first time a load is issued and its completion (Unspecified)
system.cpu.lsq0.loadToUse::30-39                  382      0.02%     97.70% # Distribution of cycle latency between the first time a load is issued and its completion (Unspecified)
system.cpu.lsq0.loadToUse::40-49                  170      0.01%     97.71% # Distribution of cycle latency between the first time a load is issued and its completion (Unspecified)
system.cpu.lsq0.loadToUse::50-59                  120      0.01%     97.71% # Distribution of cycle latency between the first time a load is issued and its completion (Unspecified)
[...]
system.l2.ReadSharedReq.missLatency::total    665531000                       # number of ReadSharedReq miss ticks (Tick)
system.l2.ReadSharedReq.accesses::cpu.data        14992                       # number of ReadSharedReq accesses(hits+misses) (Count)
system.l2.ReadSharedReq.accesses::total         14992                       # number of ReadSharedReq accesses(hits+misses) (Count)
system.l2.ReadSharedReq.missRate::cpu.data     0.727321                       # miss rate for ReadSharedReq accesses (Ratio)
system.l2.ReadSharedReq.missRate::total      0.727321                       # miss rate for ReadSharedReq accesses (Ratio)
system.l2.ReadSharedReq.avgMissLatency::cpu.data 61035.491563                       # average ReadSharedReq miss latency ((Tick/Count))
system.l2.ReadSharedReq.avgMissLatency::total 61035.491563                       # average ReadSharedReq miss latency ((Tick/Count))
system.l2.ReadSharedReq.mshrMisses::cpu.data        10904                       # number of ReadSharedReq MSHR misses (Count)
system.l2.ReadSharedReq.mshrMisses::total        10904                       # number of ReadSharedReq MSHR misses (Count)
system.l2.ReadSharedReq.mshrMissLatency::cpu.data    556491000                       # number of ReadSharedReq MSHR miss ticks (Tick)
system.l2.ReadSharedReq.mshrMissLatency::total    556491000                       # number of ReadSharedReq MSHR miss ticks (Tick)
system.l2.ReadSharedReq.mshrMissRate::cpu.data     0.727321                       # mshr miss rate for ReadSharedReq accesses (Ratio)
system.l2.ReadSharedReq.mshrMissRate::total     0.727321                       # mshr miss rate for ReadSharedReq accesses (Ratio)
system.l2.ReadSharedReq.avgMshrMissLatency::cpu.data 51035.491563                       # average ReadSharedReq mshr miss latency ((Tick/Count))
system.l2.ReadSharedReq.avgMshrMissLatency::total 51035.491563                       # average ReadSharedReq mshr miss latency ((Tick/Count))
system.l2.UpgradeReq.hits::cpu.data                 1                       # number of UpgradeReq hits (Count)
system.l2.UpgradeReq.hits::total                    1                       # number of UpgradeReq hits (Count)
system.l2.UpgradeReq.accesses::cpu.data             1                       # number of UpgradeReq accesses(hits+misses) (Count)
system.l2.UpgradeReq.accesses::total                1                       # number of UpgradeReq accesses(hits+misses) (Count)
system.l2.WritebackClean.hits::writebacks         3118                       # number of WritebackClean hits (Count)
system.l2.WritebackClean.hits::total             3118                       # number of WritebackClean hits (Count)
system.l2.WritebackClean.accesses::writebacks         3118                       # number of WritebackClean accesses(hits+misses) (Count)
system.l2.WritebackClean.accesses::total         3118                       # number of WritebackClean accesses(hits+misses) (Count)
system.l2.WritebackDirty.hits::writebacks        16314                       # number of WritebackDirty hits (Count)
system.l2.WritebackDirty.hits::total            16314                       # number of WritebackDirty hits (Count)
system.l2.WritebackDirty.accesses::writebacks        16314                       # number of WritebackDirty accesses(hits+misses) (Count)
system.l2.WritebackDirty.accesses::total        16314                       # number of WritebackDirty accesses(hits+misses) (Count)
system.l2.power_state.pwrStateResidencyTicks::UNDEFINED   4734390000                       # Cumulative time (in ticks) in various power states (Tick)
system.l2.tags.tagsInUse                 18164.738921                       # Average ticks per tags in use ((Tick/Count))
system.l2.tags.totalRefs                        64471                       # Total number of references to valid blocks. (Count)
system.l2.tags.sampledRefs                      25756                       # Sample count of references to valid blocks. (Count)
system.l2.tags.avgRefs                       2.503145                       # Average number of references to valid blocks. ((Count/Count))
system.l2.tags.warmupTick                       52000                       # The tick when the warmup percentage was hit. (Tick)
system.l2.tags.occupancies::writebacks       0.016414                       # Average occupied blocks per tick, per requestor ((Count/Tick))
system.l2.tags.occupancies::cpu.inst      1816.078345                       # Average occupied blocks per tick, per requestor ((Count/Tick))
system.l2.tags.occupancies::cpu.data     16348.644161                       # Average occupied blocks per tick, per requestor ((Count/Tick))
system.l2.tags.avgOccs::writebacks           0.000001                       # Average percentage of cache occupancy ((Ratio/Tick))
system.l2.tags.avgOccs::cpu.inst             0.055422                       # Average percentage of cache occupancy ((Ratio/Tick))
system.l2.tags.avgOccs::cpu.data             0.498921                       # Average percentage of cache occupancy ((Ratio/Tick))
system.l2.tags.avgOccs::total                0.554344                       # Average percentage of cache occupancy ((Ratio/Tick))
system.l2.tags.occupanciesTaskId::1024          25630                       # Occupied blocks per task id (Count)
system.l2.tags.ageTaskId_1024::0                  126                       # Occupied blocks per task id, per block age (Count)
system.l2.tags.ageTaskId_1024::1                  386                       # Occupied blocks per task id, per block age (Count)
system.l2.tags.ageTaskId_1024::2                  236                       # Occupied blocks per task id, per block age (Count)
system.l2.tags.ageTaskId_1024::3                24882                       # Occupied blocks per task id, per block age (Count)
system.l2.tags.ratioOccsTaskId::1024         0.782166                       # Ratio of occupied blocks and all blocks, per task id (Ratio)
system.l2.tags.tagAccesses                     541532                       # Number of tag accesses (Count)
system.l2.tags.dataAccesses                    541532                       # Number of data accesses (Count)
system.l2.tags.power_state.pwrStateResidencyTicks::UNDEFINED   4734390000                       # Cumulative time (in ticks) in various power states (Tick)
system.mem_ctrls.bytesRead::cpu.inst           169216                       # Number of bytes read from this memory (Byte)
system.mem_ctrls.bytesRead::cpu.data          1478976                       # Number of bytes read from this memory (Byte)
system.mem_ctrls.bytesRead::total             1648192                       # Number of bytes read from this memory (Byte)
system.mem_ctrls.bytesInstRead::cpu.inst       169216                       # Number of instructions bytes read from this memory (Byte)
system.mem_ctrls.bytesInstRead::total          169216                       # Number of instructions bytes read from this memory (Byte)
system.mem_ctrls.bytesWritten::writebacks         1664                       # Number of bytes written to this memory (Byte)
system.mem_ctrls.bytesWritten::total             1664                       # Number of bytes written to this memory (Byte)
system.mem_ctrls.numReads::cpu.inst              2644                       # Number of read requests responded to by this memory (Count)
system.mem_ctrls.numReads::cpu.data             23109                       # Number of read requests responded to by this memory (Count)
system.mem_ctrls.numReads::total                25753                       # Number of read requests responded to by this memory (Count)
system.mem_ctrls.numWrites::writebacks             26                       # Number of write requests responded to by this memory (Count)
system.mem_ctrls.numWrites::total                  26                       # Number of write requests responded to by this memory (Count)
system.mem_ctrls.bwRead::cpu.inst            35741880                       # Total read bandwidth from this memory ((Byte/Second))
system.mem_ctrls.bwRead::cpu.data           312389981                       # Total read bandwidth from this memory ((Byte/Second))
system.mem_ctrls.bwRead::total              348131861                       # Total read bandwidth from this memory ((Byte/Second))
system.mem_ctrls.bwInstRead::cpu.inst        35741880                       # Instruction read bandwidth from this memory ((Byte/Second))
system.mem_ctrls.bwInstRead::total           35741880                       # Instruction read bandwidth from this memory ((Byte/Second))
system.mem_ctrls.bwWrite::writebacks           351471                       # Write bandwidth from this memory ((Byte/Second))
system.mem_ctrls.bwWrite::total                351471                       # Write bandwidth from this memory ((Byte/Second))
system.mem_ctrls.bwTotal::writebacks           351471                       # Total bandwidth to/from this memory ((Byte/Second))
system.mem_ctrls.bwTotal::cpu.inst           35741880                       # Total bandwidth to/from this memory ((Byte/Second))
system.mem_ctrls.bwTotal::cpu.data          312389981                       # Total bandwidth to/from this memory ((Byte/Second))
system.mem_ctrls.bwTotal::total             348483332                       # Total bandwidth to/from this memory ((Byte/Second))
system.mem_ctrls.power_state.pwrStateResidencyTicks::UNDEFINED   4734390000                       # Cumulative time (in ticks) in various power states (Tick)
system.membus.transDist::ReadResp               13548                       # Transaction distribution (Count)
system.membus.transDist::WritebackDirty            26                       # Transaction distribution (Count)
system.membus.transDist::CleanEvict                92                       # Transaction distribution (Count)
system.membus.transDist::ReadExReq              12205                       # Transaction distribution (Count)
system.membus.transDist::ReadExResp             12205                       # Transaction distribution (Count)
system.membus.transDist::ReadSharedReq          13548                       # Transaction distribution (Count)
system.membus.pktCount_system.l2.mem_side_port::system.mem_ctrls.port        51624                       # Packet count per connected requestor and responder (Count)
system.membus.pktCount_system.l2.mem_side_port::total        51624                       # Packet count per connected requestor and responder (Count)
system.membus.pktCount::total                   51624                       # Packet count per connected requestor and responder (Count)
system.membus.pktSize_system.l2.mem_side_port::system.mem_ctrls.port      1649856                       # Cumulative packet size per connected requestor and responder (Byte)
system.membus.pktSize_system.l2.mem_side_port::total      1649856                       # Cumulative packet size per connected requestor and responder (Byte)
system.membus.pktSize::total                  1649856                       # Cumulative packet size per connected requestor and responder (Byte)
system.membus.snoops                                0                       # Total snoops (Count)
system.membus.snoopTraffic                          0                       # Total snoop traffic (Byte)
system.membus.snoopFanout::samples              27120                       # Request fanout histogram (Count)
system.membus.snoopFanout::mean                     0                       # Request fanout histogram (Count)
system.membus.snoopFanout::stdev                    0                       # Request fanout histogram (Count)
system.membus.snoopFanout::underflows               0      0.00%      0.00% # Request fanout histogram (Count)
system.membus.snoopFanout::0                    27120    100.00%    100.00% # Request fanout histogram (Count)
system.membus.snoopFanout::1                        0      0.00%    100.00% # Request fanout histogram (Count)
system.membus.snoopFanout::overflows                0      0.00%    100.00% # Request fanout histogram (Count)
system.membus.snoopFanout::min_value                0                       # Request fanout histogram (Count)
system.membus.snoopFanout::max_value                0                       # Request fanout histogram (Count)
system.membus.snoopFanout::total                27120                       # Request fanout histogram (Count)
system.membus.power_state.pwrStateResidencyTicks::UNDEFINED   4734390000                       # Cumulative time (in ticks) in various power states (Tick)
system.membus.reqLayer2.occupancy            33357744                       # Layer occupancy (ticks) (Tick)
system.membus.reqLayer2.utilization               0.0                       # Layer utilization (Ratio)
system.membus.respLayer1.occupancy          128765000                       # Layer occupancy (ticks) (Tick)
system.membus.respLayer1.utilization              0.0                       # Layer utilization (Ratio)
system.membus.snoop_filter.totRequests          27239                       # Total number of requests made to the snoop filter. (Count)
system.membus.snoop_filter.hitSingleRequests          119                       # Number of requests hitting in the snoop filter with a single holder of the requested data. (Count)
system.membus.snoop_filter.hitMultiRequests            0                       # Number of requests hitting in the snoop filter with multiple (>1) holders of the requested data. (Count)
system.membus.snoop_filter.totSnoops                0                       # Total number of snoops made to the snoop filter. (Count)
system.membus.snoop_filter.hitSingleSnoops            0                       # Number of snoops hitting in the snoop filter with a single holder of the requested data. (Count)
system.membus.snoop_filter.hitMultiSnoops            0                       # Number of snoops hitting in the snoop filter with multiple (>1) holders of the requested data. (Count)
system.tol2bus.transDist::ReadResp              18628                       # Transaction distribution (Count)
system.tol2bus.transDist::WritebackDirty        16340                       # Transaction distribution (Count)
system.tol2bus.transDist::WritebackClean         3124                       # Transaction distribution (Count)
system.tol2bus.transDist::CleanEvict             8551                       # Transaction distribution (Count)
system.tol2bus.transDist::UpgradeReq                1                       # Transaction distribution (Count)
system.tol2bus.transDist::UpgradeResp               1                       # Transaction distribution (Count)
system.tol2bus.transDist::ReadExReq             17965                       # Transaction distribution (Count)
system.tol2bus.transDist::ReadExResp            17965                       # Transaction distribution (Count)
system.tol2bus.transDist::ReadCleanReq           3637                       # Transaction distribution (Count)
system.tol2bus.transDist::ReadSharedReq         14992                       # Transaction distribution (Count)
system.tol2bus.pktCount_system.cpu.icache.mem_side_port::system.l2.cpu_side_port        10392                       # Packet count per connected requestor and responder (Count)
system.tol2bus.pktCount_system.cpu.dcache.mem_side_port::system.l2.cpu_side_port        90681                       # Packet count per connected requestor and responder (Count)
system.tol2bus.pktCount::total                 101073                       # Packet count per connected requestor and responder (Count)
system.tol2bus.pktSize_system.cpu.icache.mem_side_port::system.l2.cpu_side_port       432320                       # Cumulative packet size per connected requestor and responder (Byte)
system.tol2bus.pktSize_system.cpu.dcache.mem_side_port::system.l2.cpu_side_port      3153344                       # Cumulative packet size per connected requestor and responder (Byte)
system.tol2bus.pktSize::total                 3585664                       # Cumulative packet size per connected requestor and responder (Byte)
system.tol2bus.snoops                             131                       # Total snoops (Count)
system.tol2bus.snoopTraffic                      1984                       # Total snoop traffic (Byte)
system.tol2bus.snoopFanout::samples             36721                       # Request fanout histogram (Count)
system.tol2bus.snoopFanout::mean             0.000545                       # Request fanout histogram (Count)
system.tol2bus.snoopFanout::stdev            0.023332                       # Request fanout histogram (Count)
system.tol2bus.snoopFanout::underflows              0      0.00%      0.00% # Request fanout histogram (Count)
system.tol2bus.snoopFanout::0                   36701     99.95%     99.95% # Request fanout histogram (Count)
system.tol2bus.snoopFanout::1                      20      0.05%    100.00% # Request fanout histogram (Count)
system.tol2bus.snoopFanout::2                       0      0.00%    100.00% # Request fanout histogram (Count)
system.tol2bus.snoopFanout::3                       0      0.00%    100.00% # Request fanout histogram (Count)
system.tol2bus.snoopFanout::4                       0      0.00%    100.00% # Request fanout histogram (Count)
system.tol2bus.snoopFanout::overflows               0      0.00%    100.00% # Request fanout histogram (Count)
system.tol2bus.snoopFanout::min_value               0                       # Request fanout histogram (Count)
system.tol2bus.snoopFanout::max_value               1                       # Request fanout histogram (Count)
system.tol2bus.snoopFanout::total               36721                       # Request fanout histogram (Count)
system.tol2bus.power_state.pwrStateResidencyTicks::UNDEFINED   4734390000                       # Cumulative time (in ticks) in various power states (Tick)
system.tol2bus.reqLayer0.occupancy           51680000                       # Layer occupancy (ticks) (Tick)
system.tol2bus.reqLayer0.utilization              0.0                       # Layer utilization (Ratio)
system.tol2bus.respLayer0.occupancy           5456495                       # Layer occupancy (ticks) (Tick)
system.tol2bus.respLayer0.utilization             0.0                       # Layer utilization (Ratio)
system.tol2bus.respLayer1.occupancy          49436000                       # Layer occupancy (ticks) (Tick)
system.tol2bus.respLayer1.utilization             0.0                       # Layer utilization (Ratio)
system.tol2bus.snoop_filter.totRequests         64484                       # Total number of requests made to the snoop filter. (Count)
system.tol2bus.snoop_filter.hitSingleRequests        27893                       # Number of requests hitting in the snoop filter with a single holder of the requested data. (Count)
system.tol2bus.snoop_filter.hitMultiRequests            8                       # Number of requests hitting in the snoop filter with multiple (>1) holders of the requested data. (Count)
system.tol2bus.snoop_filter.totSnoops               8                       # Total number of snoops made to the snoop filter. (Count)
system.tol2bus.snoop_filter.hitSingleSnoops            8                       # Number of snoops hitting in the snoop filter with a single holder of the requested data. (Count)
system.tol2bus.snoop_filter.hitMultiSnoops            0                       # Number of snoops hitting in the snoop filter with multiple (>1) holders of the requested data. (Count)
system.voltage_domain.voltage                       1                       # Voltage in Volts (Volt)
system.workload.inst.arm                            0                       # number of arm instructions executed (Count)
system.workload.inst.quiesce                        0                       # number of quiesce instructions executed (Count)

---------- End Simulation Statistics   ----------
