
---------- Begin Simulation Statistics ----------
simSeconds                                   0.006917                       # Number of seconds simulated (Second)
simTicks                                   6916981000                       # Number of ticks simulated (Tick)
finalTick                                  6916981000                       # Number of ticks from beginning of simulation (restored from checkpoints and never reset) (Tick)
simFreq                                  1000000000000                       # The number of ticks per simulated second ((Tick/Second))
hostSeconds                                    861.02                       # Real time elapsed on the host (Second)
hostTickRate                                  8033479                       # The number of ticks simulated per host second (ticks/s) ((Tick/Second))
hostMemory                                    8893552                       # Number of bytes of host memory used (Byte)
simInsts                                     26186696                       # Number of instructions simulated (Count)
simOps                                       49975475                       # Number of ops (including micro ops) simulated (Count)
hostInstRate                                    30413                       # Simulator instruction rate (inst/s) ((Count/Second))
hostOpRate                                      58042                       # Simulator op (including micro ops) rate (op/s) ((Count/Second))
system.clk_domain.clock                          1000                       # Clock period in ticks (Tick)
system.cpu0.numCycles                        13833963                       # Number of cpu cycles simulated (Cycle)
system.cpu0.numWorkItemsStarted                     0                       # Number of work items this cpu started (Count)
system.cpu0.numWorkItemsCompleted                   0                       # Number of work items this cpu completed (Count)
system.cpu0.instsAdded                       29608981                       # Number of instructions added to the IQ (excludes non-spec) (Count)
system.cpu0.nonSpecInstsAdded                   69127                       # Number of non-speculative instructions added to the IQ (Count)
system.cpu0.instsIssued                      28067218                       # Number of instructions issued (Count)
system.cpu0.squashedInstsIssued                107152                       # Number of squashed instructions issued (Count)
system.cpu0.squashedInstsExamined             4690364                       # Number of squashed instructions iterated over during squash; mainly for profiling (Count)
system.cpu0.squashedOperandsExamined          6519417                       # Number of squashed operands that are examined and possibly removed from graph (Count)
system.cpu0.squashedNonSpecRemoved              39966                       # Number of squashed non-spec instructions that were removed (Count)
system.cpu0.numIssuedDist::samples           13533200                       # Number of insts issued each cycle (Count)
system.cpu0.numIssuedDist::mean              2.073953                       # Number of insts issued each cycle (Count)
system.cpu0.numIssuedDist::stdev             2.574642                       # Number of insts issued each cycle (Count)
system.cpu0.numIssuedDist::underflows               0      0.00%      0.00% # Number of insts issued each cycle (Count)
system.cpu0.numIssuedDist::0                  6968346     51.49%     51.49% # Number of insts issued each cycle (Count)
system.cpu0.numIssuedDist::1                   821427      6.07%     57.56% # Number of insts issued each cycle (Count)
system.cpu0.numIssuedDist::2                   734991      5.43%     62.99% # Number of insts issued each cycle (Count)
system.cpu0.numIssuedDist::3                  1043923      7.71%     70.71% # Number of insts issued each cycle (Count)
system.cpu0.numIssuedDist::4                   767024      5.67%     76.37% # Number of insts issued each cycle (Count)
system.cpu0.numIssuedDist::5                   897807      6.63%     83.01% # Number of insts issued each cycle (Count)
system.cpu0.numIssuedDist::6                  1261500      9.32%     92.33% # Number of insts issued each cycle (Count)
system.cpu0.numIssuedDist::7                   787547      5.82%     98.15% # Number of insts issued each cycle (Count)
system.cpu0.numIssuedDist::8                   250635      1.85%    100.00% # Number of insts issued each cycle (Count)
system.cpu0.numIssuedDist::overflows                0      0.00%    100.00% # Number of insts issued each cycle (Count)
system.cpu0.numIssuedDist::min_value                0                       # Number of insts issued each cycle (Count)
system.cpu0.numIssuedDist::max_value                8                       # Number of insts issued each cycle (Count)
system.cpu0.numIssuedDist::total             13533200                       # Number of insts issued each cycle (Count)
system.cpu0.statFuBusy::No_OpClass                  0      0.00%      0.00% # attempts to use FU when none available (Count)
system.cpu0.statFuBusy::IntAlu                1236013     97.09%     97.09% # attempts to use FU when none available (Count)
system.cpu0.statFuBusy::IntMult                     0      0.00%     97.09% # attempts to use FU when none available (Count)
system.cpu0.statFuBusy::IntDiv                      0      0.00%     97.09% # attempts to use FU when none available (Count)
system.cpu0.statFuBusy::FloatAdd                    0      0.00%     97.09% # attempts to use FU when none available (Count)
system.cpu0.statFuBusy::FloatCmp                    0      0.00%     97.09% # attempts to use FU when none available (Count)
system.cpu0.statFuBusy::FloatCvt                    3      0.00%     97.09% # attempts to use FU when none available (Count)
system.cpu0.statFuBusy::FloatMult                   0      0.00%     97.09% # attempts to use FU when none available (Count)
system.cpu0.statFuBusy::FloatMultAcc                0      0.00%     97.09% # attempts to use FU when none available (Count)
system.cpu0.statFuBusy::FloatDiv                    0      0.00%     97.09% # attempts to use FU when none available (Count)
system.cpu0.statFuBusy::FloatMisc                   0      0.00%     97.09% # attempts to use FU when none available (Count)
system.cpu0.statFuBusy::FloatSqrt                   0      0.00%     97.09% # attempts to use FU when none available (Count)
system.cpu0.statFuBusy::SimdAdd                     1      0.00%     97.09% # attempts to use FU when none available (Count)
system.cpu0.statFuBusy::SimdAddAcc                  0      0.00%     97.09% # attempts to use FU when none available (Count)
system.cpu0.statFuBusy::SimdAlu                   126      0.01%     97.10% # attempts to use FU when none available (Count)
system.cpu0.statFuBusy::SimdCmp                     0      0.00%     97.10% # attempts to use FU when none available (Count)
system.cpu0.statFuBusy::SimdCvt                   953      0.07%     97.18% # attempts to use FU when none available (Count)
system.cpu0.statFuBusy::SimdMisc                   13      0.00%     97.18% # attempts to use FU when none available (Count)
system.cpu0.statFuBusy::SimdMult                    0      0.00%     97.18% # attempts to use FU when none available (Count)
system.cpu0.statFuBusy::SimdMultAcc                 0      0.00%     97.18% # attempts to use FU when none available (Count)
system.cpu0.statFuBusy::SimdShift                  17      0.00%     97.18% # attempts to use FU when none available (Count)
system.cpu0.statFuBusy::SimdShiftAcc                0      0.00%     97.18% # attempts to use FU when none available (Count)
system.cpu0.statFuBusy::SimdDiv                     0      0.00%     97.18% # attempts to use FU when none available (Count)
system.cpu0.statFuBusy::SimdSqrt                    0      0.00%     97.18% # attempts to use FU when none available (Count)
system.cpu0.statFuBusy::SimdFloatAdd                0      0.00%     97.18% # attempts to use FU when none available (Count)
system.cpu0.statFuBusy::SimdFloatAlu                0      0.00%     97.18% # attempts to use FU when none available (Count)
system.cpu0.statFuBusy::SimdFloatCmp                0      0.00%     97.18% # attempts to use FU when none available (Count)
system.cpu0.statFuBusy::SimdFloatCvt                0      0.00%     97.18% # attempts to use FU when none available (Count)
system.cpu0.statFuBusy::SimdFloatDiv                0      0.00%     97.18% # attempts to use FU when none available (Count)
system.cpu0.statFuBusy::SimdFloatMisc               0      0.00%     97.18% # attempts to use FU when none available (Count)
system.cpu0.statFuBusy::SimdFloatMult               0      0.00%     97.18% # attempts to use FU when none available (Count)
system.cpu0.statFuBusy::SimdFloatMultAcc            0      0.00%     97.18% # attempts to use FU when none available (Count)
system.cpu0.statFuBusy::SimdFloatSqrt               0      0.00%     97.18% # attempts to use FU when none available (Count)
system.cpu0.statFuBusy::SimdReduceAdd               0      0.00%     97.18% # attempts to use FU when none available (Count)
system.cpu0.statFuBusy::SimdReduceAlu               0      0.00%     97.18% # attempts to use FU when none available (Count)
system.cpu0.statFuBusy::SimdReduceCmp               0      0.00%     97.18% # attempts to use FU when none available (Count)
system.cpu0.statFuBusy::SimdFloatReduceAdd            0      0.00%     97.18% # attempts to use FU when none available (Count)
system.cpu0.statFuBusy::SimdFloatReduceCmp            0      0.00%     97.18% # attempts to use FU when none available (Count)
system.cpu0.statFuBusy::SimdAes                     0      0.00%     97.18% # attempts to use FU when none available (Count)
system.cpu0.statFuBusy::SimdAesMix                  0      0.00%     97.18% # attempts to use FU when none available (Count)
system.cpu0.statFuBusy::SimdSha1Hash                0      0.00%     97.18% # attempts to use FU when none available (Count)
system.cpu0.statFuBusy::SimdSha1Hash2               0      0.00%     97.18% # attempts to use FU when none available (Count)
system.cpu0.statFuBusy::SimdSha256Hash              0      0.00%     97.18% # attempts to use FU when none available (Count)
system.cpu0.statFuBusy::SimdSha256Hash2             0      0.00%     97.18% # attempts to use FU when none available (Count)
system.cpu0.statFuBusy::SimdShaSigma2               0      0.00%     97.18% # attempts to use FU when none available (Count)
system.cpu0.statFuBusy::SimdShaSigma3               0      0.00%     97.18% # attempts to use FU when none available (Count)
system.cpu0.statFuBusy::SimdPredAlu                 0      0.00%     97.18% # attempts to use FU when none available (Count)
system.cpu0.statFuBusy::MemRead                 25712      2.02%     99.20% # attempts to use FU when none available (Count)
system.cpu0.statFuBusy::MemWrite                 9162      0.72%     99.92% # attempts to use FU when none available (Count)
system.cpu0.statFuBusy::FloatMemRead              760      0.06%     99.98% # attempts to use FU when none available (Count)
system.cpu0.statFuBusy::FloatMemWrite             250      0.02%    100.00% # attempts to use FU when none available (Count)
system.cpu0.statFuBusy::IprAccess                   0      0.00%    100.00% # attempts to use FU when none available (Count)
system.cpu0.statFuBusy::InstPrefetch                0      0.00%    100.00% # attempts to use FU when none available (Count)
system.cpu0.statIssuedInstType_0::No_OpClass       105619      0.38%      0.38% # Number of instructions issued per FU type, per thread (Count)
system.cpu0.statIssuedInstType_0::IntAlu     23765424     84.67%     85.05% # Number of instructions issued per FU type, per thread (Count)
system.cpu0.statIssuedInstType_0::IntMult       121629      0.43%     85.48% # Number of instructions issued per FU type, per thread (Count)
system.cpu0.statIssuedInstType_0::IntDiv        40494      0.14%     85.63% # Number of instructions issued per FU type, per thread (Count)
system.cpu0.statIssuedInstType_0::FloatAdd         8636      0.03%     85.66% # Number of instructions issued per FU type, per thread (Count)
system.cpu0.statIssuedInstType_0::FloatCmp            0      0.00%     85.66% # Number of instructions issued per FU type, per thread (Count)
system.cpu0.statIssuedInstType_0::FloatCvt         2540      0.01%     85.67% # Number of instructions issued per FU type, per thread (Count)
system.cpu0.statIssuedInstType_0::FloatMult            0      0.00%     85.67% # Number of instructions issued per FU type, per thread (Count)
system.cpu0.statIssuedInstType_0::FloatMultAcc            0      0.00%     85.67% # Number of instructions issued per FU type, per thread (Count)
system.cpu0.statIssuedInstType_0::FloatDiv            0      0.00%     85.67% # Number of instructions issued per FU type, per thread (Count)
system.cpu0.statIssuedInstType_0::FloatMisc            0      0.00%     85.67% # Number of instructions issued per FU type, per thread (Count)
system.cpu0.statIssuedInstType_0::FloatSqrt            0      0.00%     85.67% # Number of instructions issued per FU type, per thread (Count)
system.cpu0.statIssuedInstType_0::SimdAdd         7770      0.03%     85.69% # Number of instructions issued per FU type, per thread (Count)
system.cpu0.statIssuedInstType_0::SimdAddAcc            0      0.00%     85.69% # Number of instructions issued per FU type, per thread (Count)
system.cpu0.statIssuedInstType_0::SimdAlu        16056      0.06%     85.75% # Number of instructions issued per FU type, per thread (Count)
system.cpu0.statIssuedInstType_0::SimdCmp            8      0.00%     85.75% # Number of instructions issued per FU type, per thread (Count)
system.cpu0.statIssuedInstType_0::SimdCvt        16831      0.06%     85.81% # Number of instructions issued per FU type, per thread (Count)
system.cpu0.statIssuedInstType_0::SimdMisc        14897      0.05%     85.86% # Number of instructions issued per FU type, per thread (Count)
system.cpu0.statIssuedInstType_0::SimdMult            0      0.00%     85.86% # Number of instructions issued per FU type, per thread (Count)
system.cpu0.statIssuedInstType_0::SimdMultAcc            0      0.00%     85.86% # Number of instructions issued per FU type, per thread (Count)
system.cpu0.statIssuedInstType_0::SimdShift         2328      0.01%     85.87% # Number of instructions issued per FU type, per thread (Count)
system.cpu0.statIssuedInstType_0::SimdShiftAcc            0      0.00%     85.87% # Number of instructions issued per FU type, per thread (Count)
system.cpu0.statIssuedInstType_0::SimdDiv            0      0.00%     85.87% # Number of instructions issued per FU type, per thread (Count)
system.cpu0.statIssuedInstType_0::SimdSqrt            0      0.00%     85.87% # Number of instructions issued per FU type, per thread (Count)
system.cpu0.statIssuedInstType_0::SimdFloatAdd            4      0.00%     85.87% # Number of instructions issued per FU type, per thread (Count)
system.cpu0.statIssuedInstType_0::SimdFloatAlu            0      0.00%     85.87% # Number of instructions issued per FU type, per thread (Count)
system.cpu0.statIssuedInstType_0::SimdFloatCmp            0      0.00%     85.87% # Number of instructions issued per FU type, per thread (Count)
system.cpu0.statIssuedInstType_0::SimdFloatCvt           10      0.00%     85.87% # Number of instructions issued per FU type, per thread (Count)
system.cpu0.statIssuedInstType_0::SimdFloatDiv            2      0.00%     85.87% # Number of instructions issued per FU type, per thread (Count)
system.cpu0.statIssuedInstType_0::SimdFloatMisc            0      0.00%     85.87% # Number of instructions issued per FU type, per thread (Count)
system.cpu0.statIssuedInstType_0::SimdFloatMult            0      0.00%     85.87% # Number of instructions issued per FU type, per thread (Count)
system.cpu0.statIssuedInstType_0::SimdFloatMultAcc            0      0.00%     85.87% # Number of instructions issued per FU type, per thread (Count)
system.cpu0.statIssuedInstType_0::SimdFloatSqrt            0      0.00%     85.87% # Number of instructions issued per FU type, per thread (Count)
system.cpu0.statIssuedInstType_0::SimdReduceAdd            0      0.00%     85.87% # Number of instructions issued per FU type, per thread (Count)
system.cpu0.statIssuedInstType_0::SimdReduceAlu            0      0.00%     85.87% # Number of instructions issued per FU type, per thread (Count)
system.cpu0.statIssuedInstType_0::SimdReduceCmp            0      0.00%     85.87% # Number of instructions issued per FU type, per thread (Count)
system.cpu0.statIssuedInstType_0::SimdFloatReduceAdd            0      0.00%     85.87% # Number of instructions issued per FU type, per thread (Count)
system.cpu0.statIssuedInstType_0::SimdFloatReduceCmp            0      0.00%     85.87% # Number of instructions issued per FU type, per thread (Count)
system.cpu0.statIssuedInstType_0::SimdAes            0      0.00%     85.87% # Number of instructions issued per FU type, per thread (Count)
system.cpu0.statIssuedInstType_0::SimdAesMix            0      0.00%     85.87% # Number of instructions issued per FU type, per thread (Count)
system.cpu0.statIssuedInstType_0::SimdSha1Hash            0      0.00%     85.87% # Number of instructions issued per FU type, per thread (Count)
system.cpu0.statIssuedInstType_0::SimdSha1Hash2            0      0.00%     85.87% # Number of instructions issued per FU type, per thread (Count)
system.cpu0.statIssuedInstType_0::SimdSha256Hash            0      0.00%     85.87% # Number of instructions issued per FU type, per thread (Count)
system.cpu0.statIssuedInstType_0::SimdSha256Hash2            0      0.00%     85.87% # Number of instructions issued per FU type, per thread (Count)
system.cpu0.statIssuedInstType_0::SimdShaSigma2            0      0.00%     85.87% # Number of instructions issued per FU type, per thread (Count)
system.cpu0.statIssuedInstType_0::SimdShaSigma3            0      0.00%     85.87% # Number of instructions issued per FU type, per thread (Count)
system.cpu0.statIssuedInstType_0::SimdPredAlu            0      0.00%     85.87% # Number of instructions issued per FU type, per thread (Count)
system.cpu0.statIssuedInstType_0::MemRead      2819037     10.04%     95.92% # Number of instructions issued per FU type, per thread (Count)
system.cpu0.statIssuedInstType_0::MemWrite      1102752      3.93%     99.85% # Number of instructions issued per FU type, per thread (Count)
system.cpu0.statIssuedInstType_0::FloatMemRead        25453      0.09%     99.94% # Number of instructions issued per FU type, per thread (Count)
system.cpu0.statIssuedInstType_0::FloatMemWrite        17728      0.06%    100.00% # Number of instructions issued per FU type, per thread (Count)
system.cpu0.statIssuedInstType_0::IprAccess            0      0.00%    100.00% # Number of instructions issued per FU type, per thread (Count)
system.cpu0.statIssuedInstType_0::InstPrefetch            0      0.00%    100.00% # Number of instructions issued per FU type, per thread (Count)
system.cpu0.statIssuedInstType_0::total      28067218                       # Number of instructions issued per FU type, per thread (Count)
system.cpu0.issueRate                        2.028863                       # Inst issue rate ((Count/Cycle))
system.cpu0.fuBusy                            1273010                       # FU busy when requested (Count)
system.cpu0.fuBusyRate                       0.045356                       # FU busy rate (busy events/executed inst) ((Count/Count))
system.cpu0.intInstQueueReads                70813256                       # Number of integer instruction queue reads (Count)
system.cpu0.intInstQueueWrites               34207005                       # Number of integer instruction queue writes (Count)
system.cpu0.intInstQueueWakeupAccesses       27705548                       # Number of integer instruction queue wakeup accesses (Count)
system.cpu0.fpInstQueueReads                   234542                       # Number of floating instruction queue reads (Count)
system.cpu0.fpInstQueueWrites                  161710                       # Number of floating instruction queue writes (Count)
system.cpu0.fpInstQueueWakeupAccesses          112532                       # Number of floating instruction queue wakeup accesses (Count)
system.cpu0.vecInstQueueReads                       0                       # Number of vector instruction queue reads (Count)
system.cpu0.vecInstQueueWrites                      0                       # Number of vector instruction queue writes (Count)
system.cpu0.vecInstQueueWakeupAccesses              0                       # Number of vector instruction queue wakeup accesses (Count)
system.cpu0.intAluAccesses                   29116365                       # Number of integer alu accesses (Count)
system.cpu0.fpAluAccesses                      118244                       # Number of floating point alu accesses (Count)
system.cpu0.vecAluAccesses                          0                       # Number of vector alu accesses (Count)
system.cpu0.numInsts                         27927863                       # Number of executed instructions (Count)
system.cpu0.numLoadInsts                      2807345                       # Number of load instructions executed (Count)
system.cpu0.numSquashedInsts                   139355                       # Number of squashed instructions skipped in execute (Count)
system.cpu0.numSwp                                  0                       # Number of swp insts executed (Count)
system.cpu0.numNop                                  0                       # Number of nop insts executed (Count)
system.cpu0.numRefs                           3917676                       # Number of memory reference insts executed (Count)
system.cpu0.numBranches                       3379655                       # Number of branches executed (Count)
system.cpu0.numStoreInsts                     1110331                       # Number of stores executed (Count)
system.cpu0.numRate                          2.018790                       # Inst execution rate ((Count/Cycle))
system.cpu0.timesIdled                           2448                       # Number of times that the entire CPU went into an idle state and unscheduled itself (Count)
system.cpu0.idleCycles                         300763                       # Total number of cycles that the CPU has spent unscheduled due to idling (Cycle)
system.cpu0.committedInsts                   13093343                       # Number of Instructions Simulated (Count)
system.cpu0.committedOps                     24987729                       # Number of Ops (including micro ops) Simulated (Count)
system.cpu0.cpi                              1.056565                       # CPI: Cycles Per Instruction ((Cycle/Count))
system.cpu0.totalCpi                         1.056565                       # CPI: Total CPI of All Threads ((Cycle/Count))
system.cpu0.ipc                              0.946464                       # IPC: Instructions Per Cycle ((Count/Cycle))
system.cpu0.totalIpc                         0.946464                       # IPC: Total IPC of All Threads ((Count/Cycle))
system.cpu0.intRegfileReads                  39751895                       # Number of integer regfile reads (Count)
system.cpu0.intRegfileWrites                 23355352                       # Number of integer regfile writes (Count)
system.cpu0.fpRegfileReads                     152420                       # Number of floating regfile reads (Count)
system.cpu0.fpRegfileWrites                     84799                       # Number of floating regfile writes (Count)
system.cpu0.ccRegfileReads                   19090136                       # number of cc regfile reads (Count)
system.cpu0.ccRegfileWrites                  12122131                       # number of cc regfile writes (Count)
system.cpu0.miscRegfileReads                 10981766                       # number of misc regfile reads (Count)
system.cpu0.miscRegfileWrites                    1296                       # number of misc regfile writes (Count)
system.cpu0.MemDepUnit__0.insertedLoads       3042608                       # Number of loads inserted to the mem dependence unit. (Count)
system.cpu0.MemDepUnit__0.insertedStores      1207118                       # Number of stores inserted to the mem dependence unit. (Count)
system.cpu0.MemDepUnit__0.conflictingLoads       227367                       # Number of conflicting loads. (Count)
system.cpu0.MemDepUnit__0.conflictingStores        69823                       # Number of conflicting stores. (Count)
system.cpu0.MemDepUnit__1.insertedLoads             0                       # Number of loads inserted to the mem dependence unit. (Count)
system.cpu0.MemDepUnit__1.insertedStores            0                       # Number of stores inserted to the mem dependence unit. (Count)
system.cpu0.MemDepUnit__1.conflictingLoads            0                       # Number of conflicting loads. (Count)
system.cpu0.MemDepUnit__1.conflictingStores            0                       # Number of conflicting stores. (Count)
system.cpu0.MemDepUnit__2.insertedLoads             0                       # Number of loads inserted to the mem dependence unit. (Count)
system.cpu0.MemDepUnit__2.insertedStores            0                       # Number of stores inserted to the mem dependence unit. (Count)
system.cpu0.MemDepUnit__2.conflictingLoads            0                       # Number of conflicting loads. (Count)
system.cpu0.MemDepUnit__2.conflictingStores            0                       # Number of conflicting stores. (Count)
system.cpu0.MemDepUnit__3.insertedLoads             0                       # Number of loads inserted to the mem dependence unit. (Count)
system.cpu0.MemDepUnit__3.insertedStores            0                       # Number of stores inserted to the mem dependence unit. (Count)
system.cpu0.MemDepUnit__3.conflictingLoads            0                       # Number of conflicting loads. (Count)
system.cpu0.MemDepUnit__3.conflictingStores            0                       # Number of conflicting stores. (Count)
system.cpu0.branchPred.lookups                3976995                       # Number of BP lookups (Count)
system.cpu0.branchPred.condPredicted          3700464                       # Number of conditional branches predicted (Count)
system.cpu0.branchPred.condIncorrect            82555                       # Number of conditional branches incorrect (Count)
system.cpu0.branchPred.BTBLookups             2389818                       # Number of BTB lookups (Count)
system.cpu0.branchPred.BTBHits                2385198                       # Number of BTB hits (Count)
system.cpu0.branchPred.BTBHitRatio           0.998067                       # BTB Hit Ratio (Ratio)
system.cpu0.branchPred.RASUsed                  49563                       # Number of times the RAS was used to get a target. (Count)
system.cpu0.branchPred.RASIncorrect                21                       # Number of incorrect RAS predictions. (Count)
system.cpu0.branchPred.indirectLookups          47672                       # Number of indirect predictor lookups. (Count)
system.cpu0.branchPred.indirectHits             38723                       # Number of indirect target hits. (Count)
system.cpu0.branchPred.indirectMisses            8949                       # Number of indirect misses. (Count)
system.cpu0.branchPred.indirectMispredicted         1648                       # Number of mispredicted indirect branches. (Count)
system.cpu0.commit.commitSquashedInsts        4686519                       # The number of squashed insts skipped by commit (Count)
system.cpu0.commit.commitNonSpecStalls          29160                       # The number of times commit has been forced to stall to communicate backwards (Count)
system.cpu0.commit.branchMispredicts            82360                       # The number of times a branch was mispredicted (Count)
system.cpu0.commit.numCommittedDist::samples     12880259                       # Number of insts commited each cycle (Count)
system.cpu0.commit.numCommittedDist::mean     1.940002                       # Number of insts commited each cycle (Count)
system.cpu0.commit.numCommittedDist::stdev     2.950247                       # Number of insts commited each cycle (Count)
system.cpu0.commit.numCommittedDist::underflows            0      0.00%      0.00% # Number of insts commited each cycle (Count)
system.cpu0.commit.numCommittedDist::0        7668868     59.54%     59.54% # Number of insts commited each cycle (Count)
system.cpu0.commit.numCommittedDist::1         975977      7.58%     67.12% # Number of insts commited each cycle (Count)
system.cpu0.commit.numCommittedDist::2         339409      2.64%     69.75% # Number of insts commited each cycle (Count)
system.cpu0.commit.numCommittedDist::3        1038068      8.06%     77.81% # Number of insts commited each cycle (Count)
system.cpu0.commit.numCommittedDist::4         281233      2.18%     79.99% # Number of insts commited each cycle (Count)
system.cpu0.commit.numCommittedDist::5         314393      2.44%     82.44% # Number of insts commited each cycle (Count)
system.cpu0.commit.numCommittedDist::6         205810      1.60%     84.03% # Number of insts commited each cycle (Count)
system.cpu0.commit.numCommittedDist::7         165035      1.28%     85.32% # Number of insts commited each cycle (Count)
system.cpu0.commit.numCommittedDist::8        1891466     14.68%    100.00% # Number of insts commited each cycle (Count)
system.cpu0.commit.numCommittedDist::overflows            0      0.00%    100.00% # Number of insts commited each cycle (Count)
system.cpu0.commit.numCommittedDist::min_value            0                       # Number of insts commited each cycle (Count)
system.cpu0.commit.numCommittedDist::max_value            8                       # Number of insts commited each cycle (Count)
system.cpu0.commit.numCommittedDist::total     12880259                       # Number of insts commited each cycle (Count)
system.cpu0.commit.instsCommitted            13093343                       # Number of instructions committed (Count)
system.cpu0.commit.opsCommitted              24987729                       # Number of ops (including micro ops) committed (Count)
system.cpu0.commit.memRefs                    3436531                       # Number of memory references committed (Count)
system.cpu0.commit.loads                      2425840                       # Number of loads committed (Count)
system.cpu0.commit.amos                             0                       # Number of atomic instructions committed (Count)
system.cpu0.commit.membars                      18576                       # Number of memory barriers committed (Count)
system.cpu0.commit.branches                   3174389                       # Number of branches committed (Count)
system.cpu0.commit.vectorInstructions               0                       # Number of committed Vector instructions. (Count)
system.cpu0.commit.floating                     96484                       # Number of committed floating point instructions. (Count)
system.cpu0.commit.integer                   24822532                       # Number of committed integer instructions. (Count)
system.cpu0.commit.functionCalls                44854                       # Number of function calls committed. (Count)
system.cpu0.commit.committedInstType_0::No_OpClass        87205      0.35%      0.35% # Class of committed instruction (Count)
system.cpu0.commit.committedInstType_0::IntAlu     21247993     85.03%     85.38% # Class of committed instruction (Count)
system.cpu0.commit.committedInstType_0::IntMult       120804      0.48%     85.87% # Class of committed instruction (Count)
system.cpu0.commit.committedInstType_0::IntDiv        37802      0.15%     86.02% # Class of committed instruction (Count)
system.cpu0.commit.committedInstType_0::FloatAdd         6363      0.03%     86.04% # Class of committed instruction (Count)
system.cpu0.commit.committedInstType_0::FloatCmp            0      0.00%     86.04% # Class of committed instruction (Count)
system.cpu0.commit.committedInstType_0::FloatCvt         2304      0.01%     86.05% # Class of committed instruction (Count)
system.cpu0.commit.committedInstType_0::FloatMult            0      0.00%     86.05% # Class of committed instruction (Count)
system.cpu0.commit.committedInstType_0::FloatMultAcc            0      0.00%     86.05% # Class of committed instruction (Count)
system.cpu0.commit.committedInstType_0::FloatDiv            0      0.00%     86.05% # Class of committed instruction (Count)
system.cpu0.commit.committedInstType_0::FloatMisc            0      0.00%     86.05% # Class of committed instruction (Count)
system.cpu0.commit.committedInstType_0::FloatSqrt            0      0.00%     86.05% # Class of committed instruction (Count)
system.cpu0.commit.committedInstType_0::SimdAdd         7130      0.03%     86.08% # Class of committed instruction (Count)
system.cpu0.commit.committedInstType_0::SimdAddAcc            0      0.00%     86.08% # Class of committed instruction (Count)
system.cpu0.commit.committedInstType_0::SimdAlu        13046      0.05%     86.13% # Class of committed instruction (Count)
system.cpu0.commit.committedInstType_0::SimdCmp            6      0.00%     86.13% # Class of committed instruction (Count)
system.cpu0.commit.committedInstType_0::SimdCvt        14648      0.06%     86.19% # Class of committed instruction (Count)
system.cpu0.commit.committedInstType_0::SimdMisc        12815      0.05%     86.24% # Class of committed instruction (Count)
system.cpu0.commit.committedInstType_0::SimdMult            0      0.00%     86.24% # Class of committed instruction (Count)
system.cpu0.commit.committedInstType_0::SimdMultAcc            0      0.00%     86.24% # Class of committed instruction (Count)
system.cpu0.commit.committedInstType_0::SimdShift         1070      0.00%     86.25% # Class of committed instruction (Count)
system.cpu0.commit.committedInstType_0::SimdShiftAcc            0      0.00%     86.25% # Class of committed instruction (Count)
system.cpu0.commit.committedInstType_0::SimdDiv            0      0.00%     86.25% # Class of committed instruction (Count)
system.cpu0.commit.committedInstType_0::SimdSqrt            0      0.00%     86.25% # Class of committed instruction (Count)
system.cpu0.commit.committedInstType_0::SimdFloatAdd            4      0.00%     86.25% # Class of committed instruction (Count)
system.cpu0.commit.committedInstType_0::SimdFloatAlu            0      0.00%     86.25% # Class of committed instruction (Count)
system.cpu0.commit.committedInstType_0::SimdFloatCmp            0      0.00%     86.25% # Class of committed instruction (Count)
system.cpu0.commit.committedInstType_0::SimdFloatCvt            6      0.00%     86.25% # Class of committed instruction (Count)
system.cpu0.commit.committedInstType_0::SimdFloatDiv            2      0.00%     86.25% # Class of committed instruction (Count)
system.cpu0.commit.committedInstType_0::SimdFloatMisc            0      0.00%     86.25% # Class of committed instruction (Count)
system.cpu0.commit.committedInstType_0::SimdFloatMult            0      0.00%     86.25% # Class of committed instruction (Count)
system.cpu0.commit.committedInstType_0::SimdFloatMultAcc            0      0.00%     86.25% # Class of committed instruction (Count)
system.cpu0.commit.committedInstType_0::SimdFloatSqrt            0      0.00%     86.25% # Class of committed instruction (Count)
system.cpu0.commit.committedInstType_0::SimdReduceAdd            0      0.00%     86.25% # Class of committed instruction (Count)
system.cpu0.commit.committedInstType_0::SimdReduceAlu            0      0.00%     86.25% # Class of committed instruction (Count)
system.cpu0.commit.committedInstType_0::SimdReduceCmp            0      0.00%     86.25% # Class of committed instruction (Count)
system.cpu0.commit.committedInstType_0::SimdFloatReduceAdd            0      0.00%     86.25% # Class of committed instruction (Count)
system.cpu0.commit.committedInstType_0::SimdFloatReduceCmp            0      0.00%     86.25% # Class of committed instruction (Count)
system.cpu0.commit.committedInstType_0::SimdAes            0      0.00%     86.25% # Class of committed instruction (Count)
system.cpu0.commit.committedInstType_0::SimdAesMix            0      0.00%     86.25% # Class of committed instruction (Count)
system.cpu0.commit.committedInstType_0::SimdSha1Hash            0      0.00%     86.25% # Class of committed instruction (Count)
system.cpu0.commit.committedInstType_0::SimdSha1Hash2            0      0.00%     86.25% # Class of committed instruction (Count)
system.cpu0.commit.committedInstType_0::SimdSha256Hash            0      0.00%     86.25% # Class of committed instruction (Count)
system.cpu0.commit.committedInstType_0::SimdSha256Hash2            0      0.00%     86.25% # Class of committed instruction (Count)
system.cpu0.commit.committedInstType_0::SimdShaSigma2            0      0.00%     86.25% # Class of committed instruction (Count)
system.cpu0.commit.committedInstType_0::SimdShaSigma3            0      0.00%     86.25% # Class of committed instruction (Count)
system.cpu0.commit.committedInstType_0::SimdPredAlu            0      0.00%     86.25% # Class of committed instruction (Count)
system.cpu0.commit.committedInstType_0::MemRead      2405753      9.63%     95.87% # Class of committed instruction (Count)
system.cpu0.commit.committedInstType_0::MemWrite       994700      3.98%     99.86% # Class of committed instruction (Count)
system.cpu0.commit.committedInstType_0::FloatMemRead        20087      0.08%     99.94% # Class of committed instruction (Count)
system.cpu0.commit.committedInstType_0::FloatMemWrite        15991      0.06%    100.00% # Class of committed instruction (Count)
system.cpu0.commit.committedInstType_0::IprAccess            0      0.00%    100.00% # Class of committed instruction (Count)
system.cpu0.commit.committedInstType_0::InstPrefetch            0      0.00%    100.00% # Class of committed instruction (Count)
system.cpu0.commit.committedInstType_0::total     24987729                       # Class of committed instruction (Count)
system.cpu0.commit.commitEligibleSamples      1891466                       # number cycles where commit BW limit reached (Cycle)
system.cpu0.dcache.demandHits::cpu0.data      3306802                       # number of demand (read+write) hits (Count)
system.cpu0.dcache.demandHits::total          3306802                       # number of demand (read+write) hits (Count)
system.cpu0.dcache.overallHits::cpu0.data      3306802                       # number of overall hits (Count)
system.cpu0.dcache.overallHits::total         3306802                       # number of overall hits (Count)
system.cpu0.dcache.demandMisses::cpu0.data       397970                       # number of demand (read+write) misses (Count)
system.cpu0.dcache.demandMisses::total         397970                       # number of demand (read+write) misses (Count)
system.cpu0.dcache.overallMisses::cpu0.data       397970                       # number of overall misses (Count)
system.cpu0.dcache.overallMisses::total        397970                       # number of overall misses (Count)
system.cpu0.dcache.demandMissLatency::cpu0.data  17719319977                       # number of demand (read+write) miss ticks (Tick)
system.cpu0.dcache.demandMissLatency::total  17719319977                       # number of demand (read+write) miss ticks (Tick)
system.cpu0.dcache.overallMissLatency::cpu0.data  17719319977                       # number of overall miss ticks (Tick)
system.cpu0.dcache.overallMissLatency::total  17719319977                       # number of overall miss ticks (Tick)
system.cpu0.dcache.demandAccesses::cpu0.data      3704772                       # number of demand (read+write) accesses (Count)
system.cpu0.dcache.demandAccesses::total      3704772                       # number of demand (read+write) accesses (Count)
system.cpu0.dcache.overallAccesses::cpu0.data      3704772                       # number of overall (read+write) accesses (Count)
system.cpu0.dcache.overallAccesses::total      3704772                       # number of overall (read+write) accesses (Count)
system.cpu0.dcache.demandMissRate::cpu0.data     0.107421                       # miss rate for demand accesses (Ratio)
system.cpu0.dcache.demandMissRate::total     0.107421                       # miss rate for demand accesses (Ratio)
system.cpu0.dcache.overallMissRate::cpu0.data     0.107421                       # miss rate for overall accesses (Ratio)
system.cpu0.dcache.overallMissRate::total     0.107421                       # miss rate for overall accesses (Ratio)
system.cpu0.dcache.demandAvgMissLatency::cpu0.data 44524.260565                       # average overall miss latency ((Cycle/Count))
system.cpu0.dcache.demandAvgMissLatency::total 44524.260565                       # average overall miss latency ((Cycle/Count))
system.cpu0.dcache.overallAvgMissLatency::cpu0.data 44524.260565                       # average overall miss latency ((Cycle/Count))
system.cpu0.dcache.overallAvgMissLatency::total 44524.260565                       # average overall miss latency ((Cycle/Count))
system.cpu0.dcache.blockedCycles::no_mshrs        87161                       # number of cycles access was blocked (Cycle)
system.cpu0.dcache.blockedCycles::no_targets         1988                       # number of cycles access was blocked (Cycle)
system.cpu0.dcache.blockedCauses::no_mshrs         3544                       # number of times access was blocked (Count)
system.cpu0.dcache.blockedCauses::no_targets           78                       # number of times access was blocked (Count)
system.cpu0.dcache.avgBlocked::no_mshrs     24.593962                       # average number of cycles each access was blocked ((Cycle/Count))
system.cpu0.dcache.avgBlocked::no_targets    25.487179                       # average number of cycles each access was blocked ((Cycle/Count))
system.cpu0.dcache.writebacks::writebacks        54287                       # number of writebacks (Count)
system.cpu0.dcache.writebacks::total            54287                       # number of writebacks (Count)
system.cpu0.dcache.demandMshrHits::cpu0.data       284133                       # number of demand (read+write) MSHR hits (Count)
system.cpu0.dcache.demandMshrHits::total       284133                       # number of demand (read+write) MSHR hits (Count)
system.cpu0.dcache.overallMshrHits::cpu0.data       284133                       # number of overall MSHR hits (Count)
system.cpu0.dcache.overallMshrHits::total       284133                       # number of overall MSHR hits (Count)
system.cpu0.dcache.demandMshrMisses::cpu0.data       113837                       # number of demand (read+write) MSHR misses (Count)
system.cpu0.dcache.demandMshrMisses::total       113837                       # number of demand (read+write) MSHR misses (Count)
system.cpu0.dcache.overallMshrMisses::cpu0.data       113837                       # number of overall MSHR misses (Count)
system.cpu0.dcache.overallMshrMisses::total       113837                       # number of overall MSHR misses (Count)
system.cpu0.dcache.demandMshrMissLatency::cpu0.data   5557816477                       # number of demand (read+write) MSHR miss ticks (Tick)
system.cpu0.dcache.demandMshrMissLatency::total   5557816477                       # number of demand (read+write) MSHR miss ticks (Tick)
system.cpu0.dcache.overallMshrMissLatency::cpu0.data   5557816477                       # number of overall MSHR miss ticks (Tick)
system.cpu0.dcache.overallMshrMissLatency::total   5557816477                       # number of overall MSHR miss ticks (Tick)
system.cpu0.dcache.demandMshrMissRate::cpu0.data     0.030727                       # mshr miss ratio for demand accesses (Ratio)
system.cpu0.dcache.demandMshrMissRate::total     0.030727                       # mshr miss ratio for demand accesses (Ratio)
system.cpu0.dcache.overallMshrMissRate::cpu0.data     0.030727                       # mshr miss ratio for overall accesses (Ratio)
system.cpu0.dcache.overallMshrMissRate::total     0.030727                       # mshr miss ratio for overall accesses (Ratio)
system.cpu0.dcache.demandAvgMshrMissLatency::cpu0.data 48822.583844                       # average overall mshr miss latency ((Cycle/Count))
system.cpu0.dcache.demandAvgMshrMissLatency::total 48822.583844                       # average overall mshr miss latency ((Cycle/Count))
system.cpu0.dcache.overallAvgMshrMissLatency::cpu0.data 48822.583844                       # average overall mshr miss latency ((Cycle/Count))
system.cpu0.dcache.overallAvgMshrMissLatency::total 48822.583844                       # average overall mshr miss latency ((Cycle/Count))
system.cpu0.dcache.replacements                107078                       # number of replacements (Count)
system.cpu0.dcache.ReadReq.hits::cpu0.data      2327802                       # number of ReadReq hits (Count)
system.cpu0.dcache.ReadReq.hits::total        2327802                       # number of ReadReq hits (Count)
system.cpu0.dcache.ReadReq.misses::cpu0.data       366266                       # number of ReadReq misses (Count)
system.cpu0.dcache.ReadReq.misses::total       366266                       # number of ReadReq misses (Count)
system.cpu0.dcache.ReadReq.missLatency::cpu0.data  15654928500                       # number of ReadReq miss ticks (Tick)
system.cpu0.dcache.ReadReq.missLatency::total  15654928500                       # number of ReadReq miss ticks (Tick)
system.cpu0.dcache.ReadReq.accesses::cpu0.data      2694068                       # number of ReadReq accesses(hits+misses) (Count)
system.cpu0.dcache.ReadReq.accesses::total      2694068                       # number of ReadReq accesses(hits+misses) (Count)
system.cpu0.dcache.ReadReq.missRate::cpu0.data     0.135953                       # miss rate for ReadReq accesses (Ratio)
system.cpu0.dcache.ReadReq.missRate::total     0.135953                       # miss rate for ReadReq accesses (Ratio)
system.cpu0.dcache.ReadReq.avgMissLatency::cpu0.data 42741.964856                       # average ReadReq miss latency ((Tick/Count))
system.cpu0.dcache.ReadReq.avgMissLatency::total 42741.964856                       # average ReadReq miss latency ((Tick/Count))
system.cpu0.dcache.ReadReq.mshrHits::cpu0.data       284123                       # number of ReadReq MSHR hits (Count)
system.cpu0.dcache.ReadReq.mshrHits::total       284123                       # number of ReadReq MSHR hits (Count)
system.cpu0.dcache.ReadReq.mshrMisses::cpu0.data        82143                       # number of ReadReq MSHR misses (Count)
system.cpu0.dcache.ReadReq.mshrMisses::total        82143                       # number of ReadReq MSHR misses (Count)
system.cpu0.dcache.ReadReq.mshrMissLatency::cpu0.data   3525353500                       # number of ReadReq MSHR miss ticks (Tick)
system.cpu0.dcache.ReadReq.mshrMissLatency::total   3525353500                       # number of ReadReq MSHR miss ticks (Tick)
system.cpu0.dcache.ReadReq.mshrMissRate::cpu0.data     0.030490                       # mshr miss rate for ReadReq accesses (Ratio)
system.cpu0.dcache.ReadReq.mshrMissRate::total     0.030490                       # mshr miss rate for ReadReq accesses (Ratio)
system.cpu0.dcache.ReadReq.avgMshrMissLatency::cpu0.data 42917.272318                       # average ReadReq mshr miss latency ((Tick/Count))
system.cpu0.dcache.ReadReq.avgMshrMissLatency::total 42917.272318                       # average ReadReq mshr miss latency ((Tick/Count))
system.cpu0.dcache.WriteReq.hits::cpu0.data       979000                       # number of WriteReq hits (Count)
system.cpu0.dcache.WriteReq.hits::total        979000                       # number of WriteReq hits (Count)
system.cpu0.dcache.WriteReq.misses::cpu0.data        31704                       # number of WriteReq misses (Count)
system.cpu0.dcache.WriteReq.misses::total        31704                       # number of WriteReq misses (Count)
system.cpu0.dcache.WriteReq.missLatency::cpu0.data   2064391477                       # number of WriteReq miss ticks (Tick)
system.cpu0.dcache.WriteReq.missLatency::total   2064391477                       # number of WriteReq miss ticks (Tick)
system.cpu0.dcache.WriteReq.accesses::cpu0.data      1010704                       # number of WriteReq accesses(hits+misses) (Count)
system.cpu0.dcache.WriteReq.accesses::total      1010704                       # number of WriteReq accesses(hits+misses) (Count)
system.cpu0.dcache.WriteReq.missRate::cpu0.data     0.031368                       # miss rate for WriteReq accesses (Ratio)
system.cpu0.dcache.WriteReq.missRate::total     0.031368                       # miss rate for WriteReq accesses (Ratio)
system.cpu0.dcache.WriteReq.avgMissLatency::cpu0.data 65114.543181                       # average WriteReq miss latency ((Tick/Count))
system.cpu0.dcache.WriteReq.avgMissLatency::total 65114.543181                       # average WriteReq miss latency ((Tick/Count))
system.cpu0.dcache.WriteReq.mshrHits::cpu0.data           10                       # number of WriteReq MSHR hits (Count)
system.cpu0.dcache.WriteReq.mshrHits::total           10                       # number of WriteReq MSHR hits (Count)
system.cpu0.dcache.WriteReq.mshrMisses::cpu0.data        31694                       # number of WriteReq MSHR misses (Count)
system.cpu0.dcache.WriteReq.mshrMisses::total        31694                       # number of WriteReq MSHR misses (Count)
system.cpu0.dcache.WriteReq.mshrMissLatency::cpu0.data   2032462977                       # number of WriteReq MSHR miss ticks (Tick)
system.cpu0.dcache.WriteReq.mshrMissLatency::total   2032462977                       # number of WriteReq MSHR miss ticks (Tick)
system.cpu0.dcache.WriteReq.mshrMissRate::cpu0.data     0.031358                       # mshr miss rate for WriteReq accesses (Ratio)
system.cpu0.dcache.WriteReq.mshrMissRate::total     0.031358                       # mshr miss rate for WriteReq accesses (Ratio)
system.cpu0.dcache.WriteReq.avgMshrMissLatency::cpu0.data 64127.689058                       # average WriteReq mshr miss latency ((Tick/Count))
system.cpu0.dcache.WriteReq.avgMshrMissLatency::total 64127.689058                       # average WriteReq mshr miss latency ((Tick/Count))
system.cpu0.dcache.power_state.pwrStateResidencyTicks::UNDEFINED   6916981000                       # Cumulative time (in ticks) in various power states (Tick)
system.cpu0.dcache.tags.tagsInUse          477.604495                       # Average ticks per tags in use ((Tick/Count))
system.cpu0.dcache.tags.totalRefs             3422202                       # Total number of references to valid blocks. (Count)
system.cpu0.dcache.tags.sampledRefs            107590                       # Sample count of references to valid blocks. (Count)
system.cpu0.dcache.tags.avgRefs             31.807807                       # Average number of references to valid blocks. ((Count/Count))
system.cpu0.dcache.tags.warmupTick             198000                       # The tick when the warmup percentage was hit. (Tick)
system.cpu0.dcache.tags.occupancies::cpu0.data   477.604495                       # Average occupied blocks per tick, per requestor ((Count/Tick))
system.cpu0.dcache.tags.avgOccs::cpu0.data     0.932821                       # Average percentage of cache occupancy ((Ratio/Tick))
system.cpu0.dcache.tags.avgOccs::total       0.932821                       # Average percentage of cache occupancy ((Ratio/Tick))
system.cpu0.dcache.tags.occupanciesTaskId::1024          512                       # Occupied blocks per task id (Count)
system.cpu0.dcache.tags.ageTaskId_1024::0           81                       # Occupied blocks per task id, per block age (Count)
system.cpu0.dcache.tags.ageTaskId_1024::1          254                       # Occupied blocks per task id, per block age (Count)
system.cpu0.dcache.tags.ageTaskId_1024::2           36                       # Occupied blocks per task id, per block age (Count)
system.cpu0.dcache.tags.ageTaskId_1024::3          141                       # Occupied blocks per task id, per block age (Count)
system.cpu0.dcache.tags.ratioOccsTaskId::1024            1                       # Ratio of occupied blocks and all blocks, per task id (Ratio)
system.cpu0.dcache.tags.tagAccesses           7517134                       # Number of tag accesses (Count)
system.cpu0.dcache.tags.dataAccesses          7517134                       # Number of data accesses (Count)
system.cpu0.dcache.tags.power_state.pwrStateResidencyTicks::UNDEFINED   6916981000                       # Cumulative time (in ticks) in various power states (Tick)
system.cpu0.decode.idleCycles                 1358883                       # Number of cycles decode is idle (Cycle)
system.cpu0.decode.blockedCycles              7422162                       # Number of cycles decode is blocked (Cycle)
system.cpu0.decode.runCycles                  4130744                       # Number of cycles decode is running (Cycle)
system.cpu0.decode.unblockCycles               538210                       # Number of cycles decode is unblocking (Cycle)
system.cpu0.decode.squashCycles                 83201                       # Number of cycles decode is squashing (Cycle)
system.cpu0.decode.branchResolved             2286996                       # Number of times decode resolved a branch (Count)
system.cpu0.decode.branchMispred                 1552                       # Number of times decode detected a branch misprediction (Count)
system.cpu0.decode.decodedInsts              30867768                       # Number of instructions handled by decode (Count)
system.cpu0.decode.squashedInsts                 7327                       # Number of squashed instructions handled by decode (Count)
system.cpu0.dtb_walker_cache.blockedCycles::no_mshrs            0                       # number of cycles access was blocked (Cycle)
system.cpu0.dtb_walker_cache.blockedCycles::no_targets            0                       # number of cycles access was blocked (Cycle)
system.cpu0.dtb_walker_cache.blockedCauses::no_mshrs            0                       # number of times access was blocked (Count)
system.cpu0.dtb_walker_cache.blockedCauses::no_targets            0                       # number of times access was blocked (Count)
system.cpu0.dtb_walker_cache.avgBlocked::no_mshrs          nan                       # average number of cycles each access was blocked ((Cycle/Count))
system.cpu0.dtb_walker_cache.avgBlocked::no_targets          nan                       # average number of cycles each access was blocked ((Cycle/Count))
system.cpu0.dtb_walker_cache.replacements            0                       # number of replacements (Count)
system.cpu0.dtb_walker_cache.power_state.pwrStateResidencyTicks::UNDEFINED   6916981000                       # Cumulative time (in ticks) in various power states (Tick)
system.cpu0.dtb_walker_cache.tags.tagsInUse            0                       # Average ticks per tags in use ((Tick/Count))
system.cpu0.dtb_walker_cache.tags.totalRefs            0                       # Total number of references to valid blocks. (Count)
system.cpu0.dtb_walker_cache.tags.sampledRefs            0                       # Sample count of references to valid blocks. (Count)
system.cpu0.dtb_walker_cache.tags.avgRefs          nan                       # Average number of references to valid blocks. ((Count/Count))
system.cpu0.dtb_walker_cache.tags.warmupTick            0                       # The tick when the warmup percentage was hit. (Tick)
system.cpu0.dtb_walker_cache.tags.tagAccesses            0                       # Number of tag accesses (Count)
system.cpu0.dtb_walker_cache.tags.dataAccesses            0                       # Number of data accesses (Count)
system.cpu0.dtb_walker_cache.tags.power_state.pwrStateResidencyTicks::UNDEFINED   6916981000                       # Cumulative time (in ticks) in various power states (Tick)
system.cpu0.fetch.icacheStallCycles           1368329                       # Number of cycles fetch is stalled on an Icache miss (Cycle)
system.cpu0.fetch.insts                      17138755                       # Number of instructions fetch has processed (Count)
system.cpu0.fetch.branches                    3976995                       # Number of branches that fetch encountered (Count)
system.cpu0.fetch.predictedBranches           2473484                       # Number of branches that fetch has predicted taken (Count)
system.cpu0.fetch.cycles                     12069236                       # Number of cycles fetch has run and was not squashing or blocked (Cycle)
system.cpu0.fetch.squashCycles                 169446                       # Number of cycles fetch has spent squashing (Cycle)
system.cpu0.fetch.miscStallCycles                1570                       # Number of cycles fetch has spent waiting on interrupts, or bad addresses, or out of MSHRs (Cycle)
system.cpu0.fetch.pendingTrapStallCycles         9206                       # Number of stall cycles due to pending traps (Cycle)
system.cpu0.fetch.pendingQuiesceStallCycles           22                       # Number of stall cycles due to pending quiesce instructions (Cycle)
system.cpu0.fetch.icacheWaitRetryStallCycles          114                       # Number of stall cycles due to full MSHR (Cycle)
system.cpu0.fetch.cacheLines                  1233502                       # Number of cache lines fetched (Count)
system.cpu0.fetch.icacheSquashes                12541                       # Number of outstanding Icache misses that were squashed (Count)
system.cpu0.fetch.nisnDist::samples          13533200                       # Number of instructions fetched each cycle (Total) (Count)
system.cpu0.fetch.nisnDist::mean             2.385324                       # Number of instructions fetched each cycle (Total) (Count)
system.cpu0.fetch.nisnDist::stdev            3.287580                       # Number of instructions fetched each cycle (Total) (Count)
system.cpu0.fetch.nisnDist::underflows              0      0.00%      0.00% # Number of instructions fetched each cycle (Total) (Count)
system.cpu0.fetch.nisnDist::0                 8108879     59.92%     59.92% # Number of instructions fetched each cycle (Total) (Count)
system.cpu0.fetch.nisnDist::1                  267747      1.98%     61.90% # Number of instructions fetched each cycle (Total) (Count)
system.cpu0.fetch.nisnDist::2                  509362      3.76%     65.66% # Number of instructions fetched each cycle (Total) (Count)
system.cpu0.fetch.nisnDist::3                  531554      3.93%     69.59% # Number of instructions fetched each cycle (Total) (Count)
system.cpu0.fetch.nisnDist::4                  228168      1.69%     71.27% # Number of instructions fetched each cycle (Total) (Count)
system.cpu0.fetch.nisnDist::5                  238964      1.77%     73.04% # Number of instructions fetched each cycle (Total) (Count)
system.cpu0.fetch.nisnDist::6                  743434      5.49%     78.53% # Number of instructions fetched each cycle (Total) (Count)
system.cpu0.fetch.nisnDist::7                  408892      3.02%     81.55% # Number of instructions fetched each cycle (Total) (Count)
system.cpu0.fetch.nisnDist::8                 2496200     18.45%    100.00% # Number of instructions fetched each cycle (Total) (Count)
system.cpu0.fetch.nisnDist::overflows               0      0.00%    100.00% # Number of instructions fetched each cycle (Total) (Count)
system.cpu0.fetch.nisnDist::min_value               0                       # Number of instructions fetched each cycle (Total) (Count)
system.cpu0.fetch.nisnDist::max_value               8                       # Number of instructions fetched each cycle (Total) (Count)
system.cpu0.fetch.nisnDist::total            13533200                       # Number of instructions fetched each cycle (Total) (Count)
system.cpu0.fetch.branchRate                 0.287481                       # Number of branch fetches per cycle (Ratio)
system.cpu0.fetch.rate                       1.238890                       # Number of inst fetches per cycle ((Count/Cycle))
system.cpu0.icache.demandHits::cpu0.inst      1228869                       # number of demand (read+write) hits (Count)
system.cpu0.icache.demandHits::total          1228869                       # number of demand (read+write) hits (Count)
system.cpu0.icache.overallHits::cpu0.inst      1228869                       # number of overall hits (Count)
system.cpu0.icache.overallHits::total         1228869                       # number of overall hits (Count)
system.cpu0.icache.demandMisses::cpu0.inst         4630                       # number of demand (read+write) misses (Count)
system.cpu0.icache.demandMisses::total           4630                       # number of demand (read+write) misses (Count)
system.cpu0.icache.overallMisses::cpu0.inst         4630                       # number of overall misses (Count)
system.cpu0.icache.overallMisses::total          4630                       # number of overall misses (Count)
system.cpu0.icache.demandMissLatency::cpu0.inst    366834999                       # number of demand (read+write) miss ticks (Tick)
system.cpu0.icache.demandMissLatency::total    366834999                       # number of demand (read+write) miss ticks (Tick)
system.cpu0.icache.overallMissLatency::cpu0.inst    366834999                       # number of overall miss ticks (Tick)
system.cpu0.icache.overallMissLatency::total    366834999                       # number of overall miss ticks (Tick)
system.cpu0.icache.demandAccesses::cpu0.inst      1233499                       # number of demand (read+write) accesses (Count)
system.cpu0.icache.demandAccesses::total      1233499                       # number of demand (read+write) accesses (Count)
system.cpu0.icache.overallAccesses::cpu0.inst      1233499                       # number of overall (read+write) accesses (Count)
system.cpu0.icache.overallAccesses::total      1233499                       # number of overall (read+write) accesses (Count)
system.cpu0.icache.demandMissRate::cpu0.inst     0.003754                       # miss rate for demand accesses (Ratio)
system.cpu0.icache.demandMissRate::total     0.003754                       # miss rate for demand accesses (Ratio)
system.cpu0.icache.overallMissRate::cpu0.inst     0.003754                       # miss rate for overall accesses (Ratio)
system.cpu0.icache.overallMissRate::total     0.003754                       # miss rate for overall accesses (Ratio)
system.cpu0.icache.demandAvgMissLatency::cpu0.inst 79230.021382                       # average overall miss latency ((Cycle/Count))
system.cpu0.icache.demandAvgMissLatency::total 79230.021382                       # average overall miss latency ((Cycle/Count))
system.cpu0.icache.overallAvgMissLatency::cpu0.inst 79230.021382                       # average overall miss latency ((Cycle/Count))
system.cpu0.icache.overallAvgMissLatency::total 79230.021382                       # average overall miss latency ((Cycle/Count))
system.cpu0.icache.blockedCycles::no_mshrs         2102                       # number of cycles access was blocked (Cycle)
system.cpu0.icache.blockedCycles::no_targets            0                       # number of cycles access was blocked (Cycle)
system.cpu0.icache.blockedCauses::no_mshrs           30                       # number of times access was blocked (Count)
system.cpu0.icache.blockedCauses::no_targets            0                       # number of times access was blocked (Count)
system.cpu0.icache.avgBlocked::no_mshrs     70.066667                       # average number of cycles each access was blocked ((Cycle/Count))
system.cpu0.icache.avgBlocked::no_targets          nan                       # average number of cycles each access was blocked ((Cycle/Count))
system.cpu0.icache.writebacks::writebacks         3205                       # number of writebacks (Count)
system.cpu0.icache.writebacks::total             3205                       # number of writebacks (Count)
system.cpu0.icache.demandMshrHits::cpu0.inst          911                       # number of demand (read+write) MSHR hits (Count)
system.cpu0.icache.demandMshrHits::total          911                       # number of demand (read+write) MSHR hits (Count)
system.cpu0.icache.overallMshrHits::cpu0.inst          911                       # number of overall MSHR hits (Count)
system.cpu0.icache.overallMshrHits::total          911                       # number of overall MSHR hits (Count)
system.cpu0.icache.demandMshrMisses::cpu0.inst         3719                       # number of demand (read+write) MSHR misses (Count)
system.cpu0.icache.demandMshrMisses::total         3719                       # number of demand (read+write) MSHR misses (Count)
system.cpu0.icache.overallMshrMisses::cpu0.inst         3719                       # number of overall MSHR misses (Count)
system.cpu0.icache.overallMshrMisses::total         3719                       # number of overall MSHR misses (Count)
system.cpu0.icache.demandMshrMissLatency::cpu0.inst    297250999                       # number of demand (read+write) MSHR miss ticks (Tick)
system.cpu0.icache.demandMshrMissLatency::total    297250999                       # number of demand (read+write) MSHR miss ticks (Tick)
system.cpu0.icache.overallMshrMissLatency::cpu0.inst    297250999                       # number of overall MSHR miss ticks (Tick)
system.cpu0.icache.overallMshrMissLatency::total    297250999                       # number of overall MSHR miss ticks (Tick)
system.cpu0.icache.demandMshrMissRate::cpu0.inst     0.003015                       # mshr miss ratio for demand accesses (Ratio)
system.cpu0.icache.demandMshrMissRate::total     0.003015                       # mshr miss ratio for demand accesses (Ratio)
system.cpu0.icache.overallMshrMissRate::cpu0.inst     0.003015                       # mshr miss ratio for overall accesses (Ratio)
system.cpu0.icache.overallMshrMissRate::total     0.003015                       # mshr miss ratio for overall accesses (Ratio)
system.cpu0.icache.demandAvgMshrMissLatency::cpu0.inst 79927.668459                       # average overall mshr miss latency ((Cycle/Count))
system.cpu0.icache.demandAvgMshrMissLatency::total 79927.668459                       # average overall mshr miss latency ((Cycle/Count))
system.cpu0.icache.overallAvgMshrMissLatency::cpu0.inst 79927.668459                       # average overall mshr miss latency ((Cycle/Count))
system.cpu0.icache.overallAvgMshrMissLatency::total 79927.668459                       # average overall mshr miss latency ((Cycle/Count))
system.cpu0.icache.replacements                  3205                       # number of replacements (Count)
system.cpu0.icache.ReadReq.hits::cpu0.inst      1228869                       # number of ReadReq hits (Count)
system.cpu0.icache.ReadReq.hits::total        1228869                       # number of ReadReq hits (Count)
system.cpu0.icache.ReadReq.misses::cpu0.inst         4630                       # number of ReadReq misses (Count)
system.cpu0.icache.ReadReq.misses::total         4630                       # number of ReadReq misses (Count)
system.cpu0.icache.ReadReq.missLatency::cpu0.inst    366834999                       # number of ReadReq miss ticks (Tick)
system.cpu0.icache.ReadReq.missLatency::total    366834999                       # number of ReadReq miss ticks (Tick)
system.cpu0.icache.ReadReq.accesses::cpu0.inst      1233499                       # number of ReadReq accesses(hits+misses) (Count)
system.cpu0.icache.ReadReq.accesses::total      1233499                       # number of ReadReq accesses(hits+misses) (Count)
system.cpu0.icache.ReadReq.missRate::cpu0.inst     0.003754                       # miss rate for ReadReq accesses (Ratio)
system.cpu0.icache.ReadReq.missRate::total     0.003754                       # miss rate for ReadReq accesses (Ratio)
system.cpu0.icache.ReadReq.avgMissLatency::cpu0.inst 79230.021382                       # average ReadReq miss latency ((Tick/Count))
system.cpu0.icache.ReadReq.avgMissLatency::total 79230.021382                       # average ReadReq miss latency ((Tick/Count))
system.cpu0.icache.ReadReq.mshrHits::cpu0.inst          911                       # number of ReadReq MSHR hits (Count)
system.cpu0.icache.ReadReq.mshrHits::total          911                       # number of ReadReq MSHR hits (Count)
system.cpu0.icache.ReadReq.mshrMisses::cpu0.inst         3719                       # number of ReadReq MSHR misses (Count)
system.cpu0.icache.ReadReq.mshrMisses::total         3719                       # number of ReadReq MSHR misses (Count)
system.cpu0.icache.ReadReq.mshrMissLatency::cpu0.inst    297250999                       # number of ReadReq MSHR miss ticks (Tick)
system.cpu0.icache.ReadReq.mshrMissLatency::total    297250999                       # number of ReadReq MSHR miss ticks (Tick)
system.cpu0.icache.ReadReq.mshrMissRate::cpu0.inst     0.003015                       # mshr miss rate for ReadReq accesses (Ratio)
system.cpu0.icache.ReadReq.mshrMissRate::total     0.003015                       # mshr miss rate for ReadReq accesses (Ratio)
system.cpu0.icache.ReadReq.avgMshrMissLatency::cpu0.inst 79927.668459                       # average ReadReq mshr miss latency ((Tick/Count))
system.cpu0.icache.ReadReq.avgMshrMissLatency::total 79927.668459                       # average ReadReq mshr miss latency ((Tick/Count))
system.cpu0.icache.power_state.pwrStateResidencyTicks::UNDEFINED   6916981000                       # Cumulative time (in ticks) in various power states (Tick)
system.cpu0.icache.tags.tagsInUse          503.776917                       # Average ticks per tags in use ((Tick/Count))
system.cpu0.icache.tags.totalRefs             1232587                       # Total number of references to valid blocks. (Count)
system.cpu0.icache.tags.sampledRefs              3718                       # Sample count of references to valid blocks. (Count)
system.cpu0.icache.tags.avgRefs            331.518827                       # Average number of references to valid blocks. ((Count/Count))
system.cpu0.icache.tags.warmupTick              95000                       # The tick when the warmup percentage was hit. (Tick)
system.cpu0.icache.tags.occupancies::cpu0.inst   503.776917                       # Average occupied blocks per tick, per requestor ((Count/Tick))
system.cpu0.icache.tags.avgOccs::cpu0.inst     0.983939                       # Average percentage of cache occupancy ((Ratio/Tick))
system.cpu0.icache.tags.avgOccs::total       0.983939                       # Average percentage of cache occupancy ((Ratio/Tick))
system.cpu0.icache.tags.occupanciesTaskId::1024          512                       # Occupied blocks per task id (Count)
system.cpu0.icache.tags.ageTaskId_1024::0           94                       # Occupied blocks per task id, per block age (Count)
system.cpu0.icache.tags.ageTaskId_1024::1          307                       # Occupied blocks per task id, per block age (Count)
system.cpu0.icache.tags.ageTaskId_1024::2            5                       # Occupied blocks per task id, per block age (Count)
system.cpu0.icache.tags.ageTaskId_1024::3          106                       # Occupied blocks per task id, per block age (Count)
system.cpu0.icache.tags.ratioOccsTaskId::1024            1                       # Ratio of occupied blocks and all blocks, per task id (Ratio)
system.cpu0.icache.tags.tagAccesses           2470716                       # Number of tag accesses (Count)
system.cpu0.icache.tags.dataAccesses          2470716                       # Number of data accesses (Count)
system.cpu0.icache.tags.power_state.pwrStateResidencyTicks::UNDEFINED   6916981000                       # Cumulative time (in ticks) in various power states (Tick)
system.cpu0.iew.idleCycles                          0                       # Number of cycles IEW is idle (Cycle)
system.cpu0.iew.squashCycles                    83201                       # Number of cycles IEW is squashing (Cycle)
system.cpu0.iew.blockCycles                   3200224                       # Number of cycles IEW is blocking (Cycle)
system.cpu0.iew.unblockCycles                  149444                       # Number of cycles IEW is unblocking (Cycle)
system.cpu0.iew.dispatchedInsts              29678108                       # Number of instructions dispatched to IQ (Count)
system.cpu0.iew.dispSquashedInsts                1708                       # Number of squashed instructions skipped by dispatch (Count)
system.cpu0.iew.dispLoadInsts                 3042608                       # Number of dispatched load instructions (Count)
system.cpu0.iew.dispStoreInsts                1207118                       # Number of dispatched store instructions (Count)
system.cpu0.iew.dispNonSpecInsts                24025                       # Number of dispatched non-speculative instructions (Count)
system.cpu0.iew.iqFullEvents                    37710                       # Number of times the IQ has become full, causing a stall (Count)
system.cpu0.iew.lsqFullEvents                   89394                       # Number of times the LSQ has become full, causing a stall (Count)
system.cpu0.iew.memOrderViolationEvents           246                       # Number of memory order violations (Count)
system.cpu0.iew.predictedTakenIncorrect         53240                       # Number of branches that were predicted taken incorrectly (Count)
system.cpu0.iew.predictedNotTakenIncorrect        58465                       # Number of branches that were predicted not taken incorrectly (Count)
system.cpu0.iew.branchMispredicts              111705                       # Number of branch mispredicts detected at execute (Count)
system.cpu0.iew.instsToCommit                27857064                       # Cumulative count of insts sent to commit (Count)
system.cpu0.iew.writebackCount               27818080                       # Cumulative count of insts written-back (Count)
system.cpu0.iew.producerInst                 21576464                       # Number of instructions producing a value (Count)
system.cpu0.iew.consumerInst                 35501152                       # Number of instructions consuming a value (Count)
system.cpu0.iew.wbRate                       2.010854                       # Insts written-back per cycle ((Count/Cycle))
system.cpu0.iew.wbFanout                     0.607768                       # Average fanout of values written-back ((Count/Count))
system.cpu0.interrupts.clk_domain.clock          8000                       # Clock period in ticks (Tick)
system.cpu0.itb_walker_cache.blockedCycles::no_mshrs            0                       # number of cycles access was blocked (Cycle)
system.cpu0.itb_walker_cache.blockedCycles::no_targets            0                       # number of cycles access was blocked (Cycle)
system.cpu0.itb_walker_cache.blockedCauses::no_mshrs            0                       # number of times access was blocked (Count)
system.cpu0.itb_walker_cache.blockedCauses::no_targets            0                       # number of times access was blocked (Count)
system.cpu0.itb_walker_cache.avgBlocked::no_mshrs          nan                       # average number of cycles each access was blocked ((Cycle/Count))
system.cpu0.itb_walker_cache.avgBlocked::no_targets          nan                       # average number of cycles each access was blocked ((Cycle/Count))
system.cpu0.itb_walker_cache.replacements            0                       # number of replacements (Count)
system.cpu0.itb_walker_cache.power_state.pwrStateResidencyTicks::UNDEFINED   6916981000                       # Cumulative time (in ticks) in various power states (Tick)
system.cpu0.itb_walker_cache.tags.tagsInUse            0                       # Average ticks per tags in use ((Tick/Count))
system.cpu0.itb_walker_cache.tags.totalRefs            0                       # Total number of references to valid blocks. (Count)
system.cpu0.itb_walker_cache.tags.sampledRefs            0                       # Sample count of references to valid blocks. (Count)
system.cpu0.itb_walker_cache.tags.avgRefs          nan                       # Average number of references to valid blocks. ((Count/Count))
system.cpu0.itb_walker_cache.tags.warmupTick            0                       # The tick when the warmup percentage was hit. (Tick)
system.cpu0.itb_walker_cache.tags.tagAccesses            0                       # Number of tag accesses (Count)
system.cpu0.itb_walker_cache.tags.dataAccesses            0                       # Number of data accesses (Count)
system.cpu0.itb_walker_cache.tags.power_state.pwrStateResidencyTicks::UNDEFINED   6916981000                       # Cumulative time (in ticks) in various power states (Tick)
system.cpu0.lsq0.forwLoads                     102219                       # Number of loads that had data forwarded from stores (Count)
system.cpu0.lsq0.squashedLoads                 616768                       # Number of loads squashed (Count)
system.cpu0.lsq0.ignoredResponses                 167                       # Number of memory responses ignored because the instruction is squashed (Count)
system.cpu0.lsq0.memOrderViolation                246                       # Number of memory ordering violations (Count)
system.cpu0.lsq0.squashedStores                196427                       # Number of stores squashed (Count)
system.cpu0.lsq0.rescheduledLoads                  14                       # Number of loads that were rescheduled (Count)
system.cpu0.lsq0.blockedByCache                  2676                       # Number of times an access to memory failed due to the cache being blocked (Count)
system.cpu0.lsq0.loadToUse::samples           2425840                       # Distribution of cycle latency between the first time a load is issued and its completion (Unspecified)
system.cpu0.lsq0.loadToUse::mean            13.470125                       # Distribution of cycle latency between the first time a load is issued and its completion (Unspecified)
system.cpu0.lsq0.loadToUse::stdev           33.743697                       # Distribution of cycle latency between the first time a load is issued and its completion (Unspecified)
system.cpu0.lsq0.loadToUse::0-9               2134236     87.98%     87.98% # Distribution of cycle latency between the first time a load is issued and its completion (Unspecified)
system.cpu0.lsq0.loadToUse::10-19               11174      0.46%     88.44% # Distribution of cycle latency between the first time a load is issued and its completion (Unspecified)
system.cpu0.lsq0.loadToUse::20-29               36735      1.51%     89.95% # Distribution of cycle latency between the first time a load is issued and its completion (Unspecified)
system.cpu0.lsq0.loadToUse::30-39                4074      0.17%     90.12% # Distribution of cycle latency between the first time a load is issued and its completion (Unspecified)
[...]
system.mem_ctrls.bytesInstRead::total          378304                       # Number of instructions bytes read from this memory (Byte)
system.mem_ctrls.bytesWritten::writebacks      1909952                       # Number of bytes written to this memory (Byte)
system.mem_ctrls.bytesWritten::total          1909952                       # Number of bytes written to this memory (Byte)
system.mem_ctrls.numReads::cpu0.inst             2948                       # Number of read requests responded to by this memory (Count)
system.mem_ctrls.numReads::cpu0.data            34916                       # Number of read requests responded to by this memory (Count)
system.mem_ctrls.numReads::cpu1.inst             2963                       # Number of read requests responded to by this memory (Count)
system.mem_ctrls.numReads::cpu1.data            33948                       # Number of read requests responded to by this memory (Count)
system.mem_ctrls.numReads::total                74775                       # Number of read requests responded to by this memory (Count)
system.mem_ctrls.numWrites::writebacks          29843                       # Number of write requests responded to by this memory (Count)
system.mem_ctrls.numWrites::total               29843                       # Number of write requests responded to by this memory (Count)
system.mem_ctrls.bwRead::cpu0.inst           27276640                       # Total read bandwidth from this memory ((Byte/Second))
system.mem_ctrls.bwRead::cpu0.data          323063487                       # Total read bandwidth from this memory ((Byte/Second))
system.mem_ctrls.bwRead::cpu1.inst           27415429                       # Total read bandwidth from this memory ((Byte/Second))
system.mem_ctrls.bwRead::cpu1.data          314106978                       # Total read bandwidth from this memory ((Byte/Second))
system.mem_ctrls.bwRead::total              691862534                       # Total read bandwidth from this memory ((Byte/Second))
system.mem_ctrls.bwInstRead::cpu0.inst       27276640                       # Instruction read bandwidth from this memory ((Byte/Second))
system.mem_ctrls.bwInstRead::cpu1.inst       27415429                       # Instruction read bandwidth from this memory ((Byte/Second))
system.mem_ctrls.bwInstRead::total           54692069                       # Instruction read bandwidth from this memory ((Byte/Second))
system.mem_ctrls.bwWrite::writebacks        276125090                       # Write bandwidth from this memory ((Byte/Second))
system.mem_ctrls.bwWrite::total             276125090                       # Write bandwidth from this memory ((Byte/Second))
system.mem_ctrls.bwTotal::writebacks        276125090                       # Total bandwidth to/from this memory ((Byte/Second))
system.mem_ctrls.bwTotal::cpu0.inst          27276640                       # Total bandwidth to/from this memory ((Byte/Second))
system.mem_ctrls.bwTotal::cpu0.data         323063487                       # Total bandwidth to/from this memory ((Byte/Second))
system.mem_ctrls.bwTotal::cpu1.inst          27415429                       # Total bandwidth to/from this memory ((Byte/Second))
system.mem_ctrls.bwTotal::cpu1.data         314106978                       # Total bandwidth to/from this memory ((Byte/Second))
system.mem_ctrls.bwTotal::total             967987624                       # Total bandwidth to/from this memory ((Byte/Second))
system.mem_ctrls.power_state.pwrStateResidencyTicks::UNDEFINED   6916981000                       # Cumulative time (in ticks) in various power states (Tick)
system.membus.transDist::ReadResp               38684                       # Transaction distribution (Count)
system.membus.transDist::WritebackDirty         29843                       # Transaction distribution (Count)
system.membus.transDist::CleanEvict             28230                       # Transaction distribution (Count)
system.membus.transDist::UpgradeReq                17                       # Transaction distribution (Count)
system.membus.transDist::ReadExReq              36090                       # Transaction distribution (Count)
system.membus.transDist::ReadExResp             36090                       # Transaction distribution (Count)
system.membus.transDist::ReadSharedReq          38685                       # Transaction distribution (Count)
system.membus.pktCount_system.l3.mem_side_port::system.mem_ctrls.port       207639                       # Packet count per connected requestor and responder (Count)
system.membus.pktCount_system.l3.mem_side_port::total       207639                       # Packet count per connected requestor and responder (Count)
system.membus.pktCount::total                  207639                       # Packet count per connected requestor and responder (Count)
system.membus.pktSize_system.l3.mem_side_port::system.mem_ctrls.port      6695488                       # Cumulative packet size per connected requestor and responder (Byte)
system.membus.pktSize_system.l3.mem_side_port::total      6695488                       # Cumulative packet size per connected requestor and responder (Byte)
system.membus.pktSize::total                  6695488                       # Cumulative packet size per connected requestor and responder (Byte)
system.membus.snoops                                0                       # Total snoops (Count)
system.membus.snoopTraffic                          0                       # Total snoop traffic (Byte)
system.membus.snoopFanout::samples              80280                       # Request fanout histogram (Count)
system.membus.snoopFanout::mean                     0                       # Request fanout histogram (Count)
system.membus.snoopFanout::stdev                    0                       # Request fanout histogram (Count)
system.membus.snoopFanout::underflows               0      0.00%      0.00% # Request fanout histogram (Count)
system.membus.snoopFanout::0                    80280    100.00%    100.00% # Request fanout histogram (Count)
system.membus.snoopFanout::1                        0      0.00%    100.00% # Request fanout histogram (Count)
system.membus.snoopFanout::overflows                0      0.00%    100.00% # Request fanout histogram (Count)
system.membus.snoopFanout::min_value                0                       # Request fanout histogram (Count)
system.membus.snoopFanout::max_value                0                       # Request fanout histogram (Count)
system.membus.snoopFanout::total                80280                       # Request fanout histogram (Count)
system.membus.power_state.pwrStateResidencyTicks::UNDEFINED   6916981000                       # Cumulative time (in ticks) in various power states (Tick)
system.membus.reqLayer4.occupancy           277771512                       # Layer occupancy (ticks) (Tick)
system.membus.reqLayer4.utilization               0.0                       # Layer utilization (Ratio)
system.membus.respLayer1.occupancy          373870000                       # Layer occupancy (ticks) (Tick)
system.membus.respLayer1.utilization              0.1                       # Layer utilization (Ratio)
system.membus.snoop_filter.totRequests         138978                       # Total number of requests made to the snoop filter. (Count)
system.membus.snoop_filter.hitSingleRequests        58721                       # Number of requests hitting in the snoop filter with a single holder of the requested data. (Count)
system.membus.snoop_filter.hitMultiRequests            0                       # Number of requests hitting in the snoop filter with multiple (>1) holders of the requested data. (Count)
system.membus.snoop_filter.totSnoops                0                       # Total number of snoops made to the snoop filter. (Count)
system.membus.snoop_filter.hitSingleSnoops            0                       # Number of snoops hitting in the snoop filter with a single holder of the requested data. (Count)
system.membus.snoop_filter.hitMultiSnoops            0                       # Number of snoops hitting in the snoop filter with multiple (>1) holders of the requested data. (Count)
system.tol2bus.transDist::ReadResp             172345                       # Transaction distribution (Count)
system.tol2bus.transDist::WritebackDirty       235950                       # Transaction distribution (Count)
system.tol2bus.transDist::WritebackClean         6490                       # Transaction distribution (Count)
system.tol2bus.transDist::CleanEvict           162011                       # Transaction distribution (Count)
system.tol2bus.transDist::UpgradeReq            12553                       # Transaction distribution (Count)
system.tol2bus.transDist::UpgradeResp           12553                       # Transaction distribution (Count)
system.tol2bus.transDist::ReadExReq             51117                       # Transaction distribution (Count)
system.tol2bus.transDist::ReadExResp            51117                       # Transaction distribution (Count)
system.tol2bus.transDist::ReadCleanReq           7517                       # Transaction distribution (Count)
system.tol2bus.transDist::ReadSharedReq        164829                       # Transaction distribution (Count)
system.tol2bus.pktCount_system.cpu0.icache.mem_side_port::system.l2.cpu_side_port        10641                       # Packet count per connected requestor and responder (Count)
system.tol2bus.pktCount_system.cpu0.dcache.mem_side_port::system.l2.cpu_side_port       334758                       # Packet count per connected requestor and responder (Count)
system.tol2bus.pktCount_system.cpu1.icache.mem_side_port::system.l2.cpu_side_port        10880                       # Packet count per connected requestor and responder (Count)
system.tol2bus.pktCount_system.cpu1.dcache.mem_side_port::system.l2.cpu_side_port       337162                       # Packet count per connected requestor and responder (Count)
system.tol2bus.pktCount::total                 693441                       # Packet count per connected requestor and responder (Count)
system.tol2bus.pktSize_system.cpu0.icache.mem_side_port::system.l2.cpu_side_port       443008                       # Cumulative packet size per connected requestor and responder (Byte)
system.tol2bus.pktSize_system.cpu0.dcache.mem_side_port::system.l2.cpu_side_port     10360128                       # Cumulative packet size per connected requestor and responder (Byte)
system.tol2bus.pktSize_system.cpu1.icache.mem_side_port::system.l2.cpu_side_port       453248                       # Cumulative packet size per connected requestor and responder (Byte)
system.tol2bus.pktSize_system.cpu1.dcache.mem_side_port::system.l2.cpu_side_port     10444608                       # Cumulative packet size per connected requestor and responder (Byte)
system.tol2bus.pktSize::total                21700992                       # Cumulative packet size per connected requestor and responder (Byte)
system.tol2bus.snoops                          183041                       # Total snoops (Count)
system.tol2bus.snoopTraffic                   8116736                       # Total snoop traffic (Byte)
system.tol2bus.snoopFanout::samples            419055                       # Request fanout histogram (Count)
system.tol2bus.snoopFanout::mean             0.056821                       # Request fanout histogram (Count)
system.tol2bus.snoopFanout::stdev            0.231593                       # Request fanout histogram (Count)
system.tol2bus.snoopFanout::underflows              0      0.00%      0.00% # Request fanout histogram (Count)
system.tol2bus.snoopFanout::0                  395253     94.32%     94.32% # Request fanout histogram (Count)
system.tol2bus.snoopFanout::1                   23793      5.68%    100.00% # Request fanout histogram (Count)
system.tol2bus.snoopFanout::2                       9      0.00%    100.00% # Request fanout histogram (Count)
system.tol2bus.snoopFanout::3                       0      0.00%    100.00% # Request fanout histogram (Count)
system.tol2bus.snoopFanout::4                       0      0.00%    100.00% # Request fanout histogram (Count)
system.tol2bus.snoopFanout::5                       0      0.00%    100.00% # Request fanout histogram (Count)
system.tol2bus.snoopFanout::6                       0      0.00%    100.00% # Request fanout histogram (Count)
system.tol2bus.snoopFanout::7                       0      0.00%    100.00% # Request fanout histogram (Count)
system.tol2bus.snoopFanout::8                       0      0.00%    100.00% # Request fanout histogram (Count)
system.tol2bus.snoopFanout::overflows               0      0.00%    100.00% # Request fanout histogram (Count)
system.tol2bus.snoopFanout::min_value               0                       # Request fanout histogram (Count)
system.tol2bus.snoopFanout::max_value               2                       # Request fanout histogram (Count)
system.tol2bus.snoopFanout::total              419055                       # Request fanout histogram (Count)
system.tol2bus.power_state.pwrStateResidencyTicks::UNDEFINED   6916981000                       # Cumulative time (in ticks) in various power states (Tick)
system.tol2bus.reqLayer0.occupancy          344332000                       # Layer occupancy (ticks) (Tick)
system.tol2bus.reqLayer0.utilization              0.0                       # Layer utilization (Ratio)
system.tol2bus.respLayer0.occupancy           5580493                       # Layer occupancy (ticks) (Tick)
system.tol2bus.respLayer0.utilization             0.0                       # Layer utilization (Ratio)
system.tol2bus.respLayer1.occupancy         164708602                       # Layer occupancy (ticks) (Tick)
system.tol2bus.respLayer1.utilization             0.0                       # Layer utilization (Ratio)
system.tol2bus.respLayer4.occupancy           5704485                       # Layer occupancy (ticks) (Tick)
system.tol2bus.respLayer4.utilization             0.0                       # Layer utilization (Ratio)
system.tol2bus.respLayer5.occupancy         165906058                       # Layer occupancy (ticks) (Tick)
system.tol2bus.respLayer5.utilization             0.0                       # Layer utilization (Ratio)
system.tol2bus.snoop_filter.totRequests        457428                       # Total number of requests made to the snoop filter. (Count)
system.tol2bus.snoop_filter.hitSingleRequests       233964                       # Number of requests hitting in the snoop filter with a single holder of the requested data. (Count)
system.tol2bus.snoop_filter.hitMultiRequests           15                       # Number of requests hitting in the snoop filter with multiple (>1) holders of the requested data. (Count)
system.tol2bus.snoop_filter.totSnoops           23786                       # Total number of snoops made to the snoop filter. (Count)
system.tol2bus.snoop_filter.hitSingleSnoops        23777                       # Number of snoops hitting in the snoop filter with a single holder of the requested data. (Count)
system.tol2bus.snoop_filter.hitMultiSnoops            9                       # Number of snoops hitting in the snoop filter with multiple (>1) holders of the requested data. (Count)
system.tol3bus.transDist::ReadResp             123186                       # Transaction distribution (Count)
system.tol3bus.transDist::WritebackDirty       156358                       # Transaction distribution (Count)
system.tol3bus.transDist::CleanEvict            72755                       # Transaction distribution (Count)
system.tol3bus.transDist::UpgradeReq               25                       # Transaction distribution (Count)
system.tol3bus.transDist::UpgradeResp              25                       # Transaction distribution (Count)
system.tol3bus.transDist::ReadExReq             47146                       # Transaction distribution (Count)
system.tol3bus.transDist::ReadExResp            47146                       # Transaction distribution (Count)
system.tol3bus.transDist::ReadSharedReq        123187                       # Transaction distribution (Count)
system.tol3bus.pktCount_system.l2.mem_side_port::system.l3.cpu_side_port       511056                       # Packet count per connected requestor and responder (Count)
system.tol3bus.pktSize_system.l2.mem_side_port::system.l3.cpu_side_port     18998208                       # Cumulative packet size per connected requestor and responder (Byte)
system.tol3bus.snoops                           58772                       # Total snoops (Count)
system.tol3bus.snoopTraffic                   1909952                       # Total snoop traffic (Byte)
system.tol3bus.snoopFanout::samples            229130                       # Request fanout histogram (Count)
system.tol3bus.snoopFanout::mean             0.012517                       # Request fanout histogram (Count)
system.tol3bus.snoopFanout::stdev            0.111177                       # Request fanout histogram (Count)
system.tol3bus.snoopFanout::underflows              0      0.00%      0.00% # Request fanout histogram (Count)
system.tol3bus.snoopFanout::0                  226262     98.75%     98.75% # Request fanout histogram (Count)
system.tol3bus.snoopFanout::1                    2868      1.25%    100.00% # Request fanout histogram (Count)
system.tol3bus.snoopFanout::overflows               0      0.00%    100.00% # Request fanout histogram (Count)
system.tol3bus.snoopFanout::min_value               0                       # Request fanout histogram (Count)
system.tol3bus.snoopFanout::max_value               1                       # Request fanout histogram (Count)
system.tol3bus.snoopFanout::total              229130                       # Request fanout histogram (Count)
system.tol3bus.power_state.pwrStateResidencyTicks::UNDEFINED   6916981000                       # Cumulative time (in ticks) in various power states (Tick)
system.tol3bus.reqLayer0.occupancy          296864500                       # Layer occupancy (ticks) (Tick)
system.tol3bus.reqLayer0.utilization              0.0                       # Layer utilization (Ratio)
system.tol3bus.respLayer0.occupancy         255510500                       # Layer occupancy (ticks) (Tick)
system.tol3bus.respLayer0.utilization             0.0                       # Layer utilization (Ratio)
system.tol3bus.snoop_filter.totRequests        340699                       # Total number of requests made to the snoop filter. (Count)
system.tol3bus.snoop_filter.hitSingleRequests       170376                       # Number of requests hitting in the snoop filter with a single holder of the requested data. (Count)
system.tol3bus.snoop_filter.hitMultiRequests            0                       # Number of requests hitting in the snoop filter with multiple (>1) holders of the requested data. (Count)
system.tol3bus.snoop_filter.totSnoops            2868                       # Total number of snoops made to the snoop filter. (Count)
system.tol3bus.snoop_filter.hitSingleSnoops         2868                       # Number of snoops hitting in the snoop filter with a single holder of the requested data. (Count)
system.tol3bus.snoop_filter.hitMultiSnoops            0                       # Number of snoops hitting in the snoop filter with multiple (>1) holders of the requested data. (Count)
system.voltage_domain.voltage                       1                       # Voltage in Volts (Volt)
system.workload.inst.arm                            0                       # number of arm instructions executed (Count)
system.workload.inst.quiesce                        0                       # number of quiesce instructions executed (Count)

---------- End Simulation Statistics   ----------
