
---------- Begin Simulation Statistics ----------
simSeconds                                   0.007102                       # Number of seconds simulated (Second)
simTicks                                   7101520000                       # Number of ticks simulated (Tick)
finalTick                                  7101520000                       # Number of ticks from beginning of simulation (restored from checkpoints and never reset) (Tick)
simFreq                                  1000000000000                       # The number of ticks per simulated second ((Tick/Second))
hostSeconds                                   1834.32                       # Real time elapsed on the host (Second)
hostTickRate                                  3871468                       # The number of ticks simulated per host second (ticks/s) ((Tick/Second))
hostMemory                                    9101724                       # Number of bytes of host memory used (Byte)
simInsts                                     52374362                       # Number of instructions simulated (Count)
simOps                                       99952795                       # Number of ops (including micro ops) simulated (Count)
hostInstRate                                    28552                       # Simulator instruction rate (inst/s) ((Count/Second))
hostOpRate                                      54490                       # Simulator op (including micro ops) rate (op/s) ((Count/Second))
system.clk_domain.clock                          1000                       # Clock period in ticks (Tick)
system.cpu0.numCycles                        14126700                       # Number of cpu cycles simulated (Cycle)
system.cpu0.numWorkItemsStarted                     0                       # Number of work items this cpu started (Count)
system.cpu0.numWorkItemsCompleted                   0                       # Number of work items this cpu completed (Count)
system.cpu0.instsAdded                       29648083                       # Number of instructions added to the IQ (excludes non-spec) (Count)
system.cpu0.nonSpecInstsAdded                   70239                       # Number of non-speculative instructions added to the IQ (Count)
system.cpu0.instsIssued                      28111432                       # Number of instructions issued (Count)
system.cpu0.squashedInstsIssued                108161                       # Number of squashed instructions issued (Count)
system.cpu0.squashedInstsExamined             4730117                       # Number of squashed instructions iterated over during squash; mainly for profiling (Count)
system.cpu0.squashedOperandsExamined          6589373                       # Number of squashed operands that are examined and possibly removed from graph (Count)
system.cpu0.squashedNonSpecRemoved              41079                       # Number of squashed non-spec instructions that were removed (Count)
system.cpu0.numIssuedDist::samples           13821110                       # Number of insts issued each cycle (Count)
system.cpu0.numIssuedDist::mean              2.033949                       # Number of insts issued each cycle (Count)
system.cpu0.numIssuedDist::stdev             2.563343                       # Number of insts issued each cycle (Count)
system.cpu0.numIssuedDist::underflows               0      0.00%      0.00% # Number of insts issued each cycle (Count)
system.cpu0.numIssuedDist::0                  7225160     52.28%     52.28% # Number of insts issued each cycle (Count)
system.cpu0.numIssuedDist::1                   844961      6.11%     58.39% # Number of insts issued each cycle (Count)
system.cpu0.numIssuedDist::2                   738833      5.35%     63.74% # Number of insts issued each cycle (Count)
system.cpu0.numIssuedDist::3                  1045979      7.57%     71.30% # Number of insts issued each cycle (Count)
system.cpu0.numIssuedDist::4                   766354      5.54%     76.85% # Number of insts issued each cycle (Count)
system.cpu0.numIssuedDist::5                   899674      6.51%     83.36% # Number of insts issued each cycle (Count)
system.cpu0.numIssuedDist::6                  1263219      9.14%     92.50% # Number of insts issued each cycle (Count)
system.cpu0.numIssuedDist::7                   787672      5.70%     98.20% # Number of insts issued each cycle (Count)
system.cpu0.numIssuedDist::8                   249258      1.80%    100.00% # Number of insts issued each cycle (Count)
system.cpu0.numIssuedDist::overflows                0      0.00%    100.00% # Number of insts issued each cycle (Count)
system.cpu0.numIssuedDist::min_value                0                       # Number of insts issued each cycle (Count)
system.cpu0.numIssuedDist::max_value                8                       # Number of insts issued each cycle (Count)
system.cpu0.numIssuedDist::total             13821110                       # Number of insts issued each cycle (Count)
system.cpu0.statFuBusy::No_OpClass                  0      0.00%      0.00% # attempts to use FU when none available (Count)
system.cpu0.statFuBusy::IntAlu                1234266     96.96%     96.96% # attempts to use FU when none available (Count)
system.cpu0.statFuBusy::IntMult                     0      0.00%     96.96% # attempts to use FU when none available (Count)
system.cpu0.statFuBusy::IntDiv                      0      0.00%     96.96% # attempts to use FU when none available (Count)
system.cpu0.statFuBusy::FloatAdd                    0      0.00%     96.96% # attempts to use FU when none available (Count)
system.cpu0.statFuBusy::FloatCmp                    0      0.00%     96.96% # attempts to use FU when none available (Count)
system.cpu0.statFuBusy::FloatCvt                    0      0.00%     96.96% # attempts to use FU when none available (Count)
system.cpu0.statFuBusy::FloatMult                   0      0.00%     96.96% # attempts to use FU when none available (Count)
system.cpu0.statFuBusy::FloatMultAcc                0      0.00%     96.96% # attempts to use FU when none available (Count)
system.cpu0.statFuBusy::FloatDiv                    0      0.00%     96.96% # attempts to use FU when none available (Count)
system.cpu0.statFuBusy::FloatMisc                   0      0.00%     96.96% # attempts to use FU when none available (Count)
system.cpu0.statFuBusy::FloatSqrt                   0      0.00%     96.96% # attempts to use FU when none available (Count)
system.cpu0.statFuBusy::SimdAdd                     1      0.00%     96.96% # attempts to use FU when none available (Count)
system.cpu0.statFuBusy::SimdAddAcc                  0      0.00%     96.96% # attempts to use FU when none available (Count)
system.cpu0.statFuBusy::SimdAlu                   133      0.01%     96.97% # attempts to use FU when none available (Count)
system.cpu0.statFuBusy::SimdCmp                     0      0.00%     96.97% # attempts to use FU when none available (Count)
system.cpu0.statFuBusy::SimdCvt                  1013      0.08%     97.05% # attempts to use FU when none available (Count)
system.cpu0.statFuBusy::SimdMisc                   15      0.00%     97.05% # attempts to use FU when none available (Count)
system.cpu0.statFuBusy::SimdMult                    0      0.00%     97.05% # attempts to use FU when none available (Count)
system.cpu0.statFuBusy::SimdMultAcc                 0      0.00%     97.05% # attempts to use FU when none available (Count)
system.cpu0.statFuBusy::SimdShift                  22      0.00%     97.06% # attempts to use FU when none available (Count)
system.cpu0.statFuBusy::SimdShiftAcc                0      0.00%     97.06% # attempts to use FU when none available (Count)
system.cpu0.statFuBusy::SimdDiv                     0      0.00%     97.06% # attempts to use FU when none available (Count)
system.cpu0.statFuBusy::SimdSqrt                    0      0.00%     97.06% # attempts to use FU when none available (Count)
system.cpu0.statFuBusy::SimdFloatAdd                0      0.00%     97.06% # attempts to use FU when none available (Count)
system.cpu0.statFuBusy::SimdFloatAlu                0      0.00%     97.06% # attempts to use FU when none available (Count)
system.cpu0.statFuBusy::SimdFloatCmp                0      0.00%     97.06% # attempts to use FU when none available (Count)
system.cpu0.statFuBusy::SimdFloatCvt                0      0.00%     97.06% # attempts to use FU when none available (Count)
system.cpu0.statFuBusy::SimdFloatDiv                0      0.00%     97.06% # attempts to use FU when none available (Count)
system.cpu0.statFuBusy::SimdFloatMisc               0      0.00%     97.06% # attempts to use FU when none available (Count)
system.cpu0.statFuBusy::SimdFloatMult               0      0.00%     97.06% # attempts to use FU when none available (Count)
system.cpu0.statFuBusy::SimdFloatMultAcc            0      0.00%     97.06% # attempts to use FU when none available (Count)
system.cpu0.statFuBusy::SimdFloatSqrt               0      0.00%     97.06% # attempts to use FU when none available (Count)
system.cpu0.statFuBusy::SimdReduceAdd               0      0.00%     97.06% # attempts to use FU when none available (Count)
system.cpu0.statFuBusy::SimdReduceAlu               0      0.00%     97.06% # attempts to use FU when none available (Count)
system.cpu0.statFuBusy::SimdReduceCmp               0      0.00%     97.06% # attempts to use FU when none available (Count)
system.cpu0.statFuBusy::SimdFloatReduceAdd            0      0.00%     97.06% # attempts to use FU when none available (Count)
system.cpu0.statFuBusy::SimdFloatReduceCmp            0      0.00%     97.06% # attempts to use FU when none available (Count)
system.cpu0.statFuBusy::SimdAes                     0      0.00%     97.06% # attempts to use FU when none available (Count)
system.cpu0.statFuBusy::SimdAesMix                  0      0.00%     97.06% # attempts to use FU when none available (Count)
system.cpu0.statFuBusy::SimdSha1Hash                0      0.00%     97.06% # attempts to use FU when none available (Count)
system.cpu0.statFuBusy::SimdSha1Hash2               0      0.00%     97.06% # attempts to use FU when none available (Count)
system.cpu0.statFuBusy::SimdSha256Hash              0      0.00%     97.06% # attempts to use FU when none available (Count)
system.cpu0.statFuBusy::SimdSha256Hash2             0      0.00%     97.06% # attempts to use FU when none available (Count)
system.cpu0.statFuBusy::SimdShaSigma2               0      0.00%     97.06% # attempts to use FU when none available (Count)
system.cpu0.statFuBusy::SimdShaSigma3               0      0.00%     97.06% # attempts to use FU when none available (Count)
system.cpu0.statFuBusy::SimdPredAlu                 0      0.00%     97.06% # attempts to use FU when none available (Count)
system.cpu0.statFuBusy::MemRead                 27546      2.16%     99.22% # attempts to use FU when none available (Count)
system.cpu0.statFuBusy::MemWrite                 8935      0.70%     99.92% # attempts to use FU when none available (Count)
system.cpu0.statFuBusy::FloatMemRead              759      0.06%     99.98% # attempts to use FU when none available (Count)
system.cpu0.statFuBusy::FloatMemWrite             246      0.02%    100.00% # attempts to use FU when none available (Count)
system.cpu0.statFuBusy::IprAccess                   0      0.00%    100.00% # attempts to use FU when none available (Count)
system.cpu0.statFuBusy::InstPrefetch                0      0.00%    100.00% # attempts to use FU when none available (Count)
system.cpu0.statIssuedInstType_0::No_OpClass       105780      0.38%      0.38% # Number of instructions issued per FU type, per thread (Count)
system.cpu0.statIssuedInstType_0::IntAlu     23785939     84.61%     84.99% # Number of instructions issued per FU type, per thread (Count)
system.cpu0.statIssuedInstType_0::IntMult       121622      0.43%     85.42% # Number of instructions issued per FU type, per thread (Count)
system.cpu0.statIssuedInstType_0::IntDiv        40546      0.14%     85.57% # Number of instructions issued per FU type, per thread (Count)
system.cpu0.statIssuedInstType_0::FloatAdd         8619      0.03%     85.60% # Number of instructions issued per FU type, per thread (Count)
system.cpu0.statIssuedInstType_0::FloatCmp            0      0.00%     85.60% # Number of instructions issued per FU type, per thread (Count)
system.cpu0.statIssuedInstType_0::FloatCvt         2516      0.01%     85.61% # Number of instructions issued per FU type, per thread (Count)
system.cpu0.statIssuedInstType_0::FloatMult            0      0.00%     85.61% # Number of instructions issued per FU type, per thread (Count)
system.cpu0.statIssuedInstType_0::FloatMultAcc            0      0.00%     85.61% # Number of instructions issued per FU type, per thread (Count)
system.cpu0.statIssuedInstType_0::FloatDiv            0      0.00%     85.61% # Number of instructions issued per FU type, per thread (Count)
system.cpu0.statIssuedInstType_0::FloatMisc            0      0.00%     85.61% # Number of instructions issued per FU type, per thread (Count)
system.cpu0.statIssuedInstType_0::FloatSqrt            0      0.00%     85.61% # Number of instructions issued per FU type, per thread (Count)
system.cpu0.statIssuedInstType_0::SimdAdd         7807      0.03%     85.63% # Number of instructions issued per FU type, per thread (Count)
system.cpu0.statIssuedInstType_0::SimdAddAcc            0      0.00%     85.63% # Number of instructions issued per FU type, per thread (Count)
system.cpu0.statIssuedInstType_0::SimdAlu        16063      0.06%     85.69% # Number of instructions issued per FU type, per thread (Count)
system.cpu0.statIssuedInstType_0::SimdCmp            8      0.00%     85.69% # Number of instructions issued per FU type, per thread (Count)
system.cpu0.statIssuedInstType_0::SimdCvt        16989      0.06%     85.75% # Number of instructions issued per FU type, per thread (Count)
system.cpu0.statIssuedInstType_0::SimdMisc        14913      0.05%     85.80% # Number of instructions issued per FU type, per thread (Count)
system.cpu0.statIssuedInstType_0::SimdMult            0      0.00%     85.80% # Number of instructions issued per FU type, per thread (Count)
system.cpu0.statIssuedInstType_0::SimdMultAcc            0      0.00%     85.80% # Number of instructions issued per FU type, per thread (Count)
system.cpu0.statIssuedInstType_0::SimdShift         2335      0.01%     85.81% # Number of instructions issued per FU type, per thread (Count)
system.cpu0.statIssuedInstType_0::SimdShiftAcc            0      0.00%     85.81% # Number of instructions issued per FU type, per thread (Count)
system.cpu0.statIssuedInstType_0::SimdDiv            0      0.00%     85.81% # Number of instructions issued per FU type, per thread (Count)
system.cpu0.statIssuedInstType_0::SimdSqrt            0      0.00%     85.81% # Number of instructions issued per FU type, per thread (Count)
system.cpu0.statIssuedInstType_0::SimdFloatAdd            4      0.00%     85.81% # Number of instructions issued per FU type, per thread (Count)
system.cpu0.statIssuedInstType_0::SimdFloatAlu            0      0.00%     85.81% # Number of instructions issued per FU type, per thread (Count)
system.cpu0.statIssuedInstType_0::SimdFloatCmp            0      0.00%     85.81% # Number of instructions issued per FU type, per thread (Count)
system.cpu0.statIssuedInstType_0::SimdFloatCvt           10      0.00%     85.81% # Number of instructions issued per FU type, per thread (Count)
system.cpu0.statIssuedInstType_0::SimdFloatDiv            2      0.00%     85.81% # Number of instructions issued per FU type, per thread (Count)
system.cpu0.statIssuedInstType_0::SimdFloatMisc            0      0.00%     85.81% # Number of instructions issued per FU type, per thread (Count)
system.cpu0.statIssuedInstType_0::SimdFloatMult            0      0.00%     85.81% # Number of instructions issued per FU type, per thread (Count)
system.cpu0.statIssuedInstType_0::SimdFloatMultAcc            0      0.00%     85.81% # Number of instructions issued per FU type, per thread (Count)
system.cpu0.statIssuedInstType_0::SimdFloatSqrt            0      0.00%     85.81% # Number of instructions issued per FU type, per thread (Count)
system.cpu0.statIssuedInstType_0::SimdReduceAdd            0      0.00%     85.81% # Number of instructions issued per FU type, per thread (Count)
system.cpu0.statIssuedInstType_0::SimdReduceAlu            0      0.00%     85.81% # Number of instructions issued per FU type, per thread (Count)
system.cpu0.statIssuedInstType_0::SimdReduceCmp            0      0.00%     85.81% # Number of instructions issued per FU type, per thread (Count)
system.cpu0.statIssuedInstType_0::SimdFloatReduceAdd            0      0.00%     85.81% # Number of instructions issued per FU type, per thread (Count)
system.cpu0.statIssuedInstType_0::SimdFloatReduceCmp            0      0.00%     85.81% # Number of instructions issued per FU type, per thread (Count)
system.cpu0.statIssuedInstType_0::SimdAes            0      0.00%     85.81% # Number of instructions issued per FU type, per thread (Count)
system.cpu0.statIssuedInstType_0::SimdAesMix            0      0.00%     85.81% # Number of instructions issued per FU type, per thread (Count)
system.cpu0.statIssuedInstType_0::SimdSha1Hash            0      0.00%     85.81% # Number of instructions issued per FU type, per thread (Count)
system.cpu0.statIssuedInstType_0::SimdSha1Hash2            0      0.00%     85.81% # Number of instructions issued per FU type, per thread (Count)
system.cpu0.statIssuedInstType_0::SimdSha256Hash            0      0.00%     85.81% # Number of instructions issued per FU type, per thread (Count)
system.cpu0.statIssuedInstType_0::SimdSha256Hash2            0      0.00%     85.81% # Number of instructions issued per FU type, per thread (Count)
system.cpu0.statIssuedInstType_0::SimdShaSigma2            0      0.00%     85.81% # Number of instructions issued per FU type, per thread (Count)
system.cpu0.statIssuedInstType_0::SimdShaSigma3            0      0.00%     85.81% # Number of instructions issued per FU type, per thread (Count)
system.cpu0.statIssuedInstType_0::SimdPredAlu            0      0.00%     85.81% # Number of instructions issued per FU type, per thread (Count)
system.cpu0.statIssuedInstType_0::MemRead      2842691     10.11%     95.92% # Number of instructions issued per FU type, per thread (Count)
system.cpu0.statIssuedInstType_0::MemWrite      1102386      3.92%     99.85% # Number of instructions issued per FU type, per thread (Count)
system.cpu0.statIssuedInstType_0::FloatMemRead        25481      0.09%     99.94% # Number of instructions issued per FU type, per thread (Count)
system.cpu0.statIssuedInstType_0::FloatMemWrite        17721      0.06%    100.00% # Number of instructions issued per FU type, per thread (Count)
system.cpu0.statIssuedInstType_0::IprAccess            0      0.00%    100.00% # Number of instructions issued per FU type, per thread (Count)
system.cpu0.statIssuedInstType_0::InstPrefetch            0      0.00%    100.00% # Number of instructions issued per FU type, per thread (Count)
system.cpu0.statIssuedInstType_0::total      28111432                       # Number of instructions issued per FU type, per thread (Count)
system.cpu0.issueRate                        1.989950                       # Inst issue rate ((Count/Cycle))
system.cpu0.fuBusy                            1272936                       # FU busy when requested (Count)
system.cpu0.fuBusyRate                       0.045282                       # FU busy rate (busy events/executed inst) ((Count/Count))
system.cpu0.intInstQueueReads                71190046                       # Number of integer instruction queue reads (Count)
system.cpu0.intInstQueueWrites               34287604                       # Number of integer instruction queue writes (Count)
system.cpu0.intInstQueueWakeupAccesses       27726807                       # Number of integer instruction queue wakeup accesses (Count)
system.cpu0.fpInstQueueReads                   235025                       # Number of floating instruction queue reads (Count)
system.cpu0.fpInstQueueWrites                  161074                       # Number of floating instruction queue writes (Count)
system.cpu0.fpInstQueueWakeupAccesses          112912                       # Number of floating instruction queue wakeup accesses (Count)
system.cpu0.vecInstQueueReads                       0                       # Number of vector instruction queue reads (Count)
system.cpu0.vecInstQueueWrites                      0                       # Number of vector instruction queue writes (Count)
system.cpu0.vecInstQueueWakeupAccesses              0                       # Number of vector instruction queue wakeup accesses (Count)
system.cpu0.intAluAccesses                   29160072                       # Number of integer alu accesses (Count)
system.cpu0.fpAluAccesses                      118516                       # Number of floating point alu accesses (Count)
system.cpu0.vecAluAccesses                          0                       # Number of vector alu accesses (Count)
system.cpu0.numInsts                         27973335                       # Number of executed instructions (Count)
system.cpu0.numLoadInsts                      2831342                       # Number of load instructions executed (Count)
system.cpu0.numSquashedInsts                   138097                       # Number of squashed instructions skipped in execute (Count)
system.cpu0.numSwp                                  0                       # Number of swp insts executed (Count)
system.cpu0.numNop                                  0                       # Number of nop insts executed (Count)
system.cpu0.numRefs                           3941345                       # Number of memory reference insts executed (Count)
system.cpu0.numBranches                       3380585                       # Number of branches executed (Count)
system.cpu0.numStoreInsts                     1110003                       # Number of stores executed (Count)
system.cpu0.numRate                          1.980175                       # Inst execution rate ((Count/Cycle))
system.cpu0.timesIdled                           2426                       # Number of times that the entire CPU went into an idle state and unscheduled itself (Count)
system.cpu0.idleCycles                         305590                       # Total number of cycles that the CPU has spent unscheduled due to idling (Cycle)
system.cpu0.committedInsts                   13093594                       # Number of Instructions Simulated (Count)
system.cpu0.committedOps                     24988205                       # Number of Ops (including micro ops) Simulated (Count)
system.cpu0.cpi                              1.078902                       # CPI: Cycles Per Instruction ((Cycle/Count))
system.cpu0.totalCpi                         1.078902                       # CPI: Total CPI of All Threads ((Cycle/Count))
system.cpu0.ipc                              0.926869                       # IPC: Instructions Per Cycle ((Count/Cycle))
system.cpu0.totalIpc                         0.926869                       # IPC: Total IPC of All Threads ((Count/Cycle))
system.cpu0.intRegfileReads                  39812840                       # Number of integer regfile reads (Count)
system.cpu0.intRegfileWrites                 23375155                       # Number of integer regfile writes (Count)
system.cpu0.fpRegfileReads                     153084                       # Number of floating regfile reads (Count)
system.cpu0.fpRegfileWrites                     85211                       # Number of floating regfile writes (Count)
system.cpu0.ccRegfileReads                   19093227                       # number of cc regfile reads (Count)
system.cpu0.ccRegfileWrites                  12131604                       # number of cc regfile writes (Count)
system.cpu0.miscRegfileReads                 11011129                       # number of misc regfile reads (Count)
system.cpu0.miscRegfileWrites                    1296                       # number of misc regfile writes (Count)
system.cpu0.MemDepUnit__0.insertedLoads       3050645                       # Number of loads inserted to the mem dependence unit. (Count)
system.cpu0.MemDepUnit__0.insertedStores      1207718                       # Number of stores inserted to the mem dependence unit. (Count)
system.cpu0.MemDepUnit__0.conflictingLoads       230163                       # Number of conflicting loads. (Count)
system.cpu0.MemDepUnit__0.conflictingStores        73582                       # Number of conflicting stores. (Count)
system.cpu0.MemDepUnit__1.insertedLoads             0                       # Number of loads inserted to the mem dependence unit. (Count)
system.cpu0.MemDepUnit__1.insertedStores            0                       # Number of stores inserted to the mem dependence unit. (Count)
system.cpu0.MemDepUnit__1.conflictingLoads            0                       # Number of conflicting loads. (Count)
system.cpu0.MemDepUnit__1.conflictingStores            0                       # Number of conflicting stores. (Count)
system.cpu0.MemDepUnit__2.insertedLoads             0                       # Number of loads inserted to the mem dependence unit. (Count)
system.cpu0.MemDepUnit__2.insertedStores            0                       # Number of stores inserted to the mem dependence unit. (Count)
system.cpu0.MemDepUnit__2.conflictingLoads            0                       # Number of conflicting loads. (Count)
system.cpu0.MemDepUnit__2.conflictingStores            0                       # Number of conflicting stores. (Count)
system.cpu0.MemDepUnit__3.insertedLoads             0                       # Number of loads inserted to the mem dependence unit. (Count)
system.cpu0.MemDepUnit__3.insertedStores            0                       # Number of stores inserted to the mem dependence unit. (Count)
system.cpu0.MemDepUnit__3.conflictingLoads            0                       # Number of conflicting loads. (Count)
system.cpu0.MemDepUnit__3.conflictingStores            0                       # Number of conflicting stores. (Count)
system.cpu0.branchPred.lookups                3986110                       # Number of BP lookups (Count)
system.cpu0.branchPred.condPredicted          3709063                       # Number of conditional branches predicted (Count)
system.cpu0.branchPred.condIncorrect            83101                       # Number of conditional branches incorrect (Count)
system.cpu0.branchPred.BTBLookups             2394173                       # Number of BTB lookups (Count)
system.cpu0.branchPred.BTBHits                2389404                       # Number of BTB hits (Count)
system.cpu0.branchPred.BTBHitRatio           0.998008                       # BTB Hit Ratio (Ratio)
system.cpu0.branchPred.RASUsed                  49571                       # Number of times the RAS was used to get a target. (Count)
system.cpu0.branchPred.RASIncorrect                23                       # Number of incorrect RAS predictions. (Count)
system.cpu0.branchPred.indirectLookups          47916                       # Number of indirect predictor lookups. (Count)
system.cpu0.branchPred.indirectHits             38713                       # Number of indirect target hits. (Count)
system.cpu0.branchPred.indirectMisses            9203                       # Number of indirect misses. (Count)
system.cpu0.branchPred.indirectMispredicted         1665                       # Number of mispredicted indirect branches. (Count)
system.cpu0.commit.commitSquashedInsts        4727092                       # The number of squashed insts skipped by commit (Count)
system.cpu0.commit.commitNonSpecStalls          29160                       # The number of times commit has been forced to stall to communicate backwards (Count)
system.cpu0.commit.branchMispredicts            83000                       # The number of times a branch was mispredicted (Count)
system.cpu0.commit.numCommittedDist::samples     13158690                       # Number of insts commited each cycle (Count)
system.cpu0.commit.numCommittedDist::mean     1.898989                       # Number of insts commited each cycle (Count)
system.cpu0.commit.numCommittedDist::stdev     2.930330                       # Number of insts commited each cycle (Count)
system.cpu0.commit.numCommittedDist::underflows            0      0.00%      0.00% # Number of insts commited each cycle (Count)
system.cpu0.commit.numCommittedDist::0        7942689     60.36%     60.36% # Number of insts commited each cycle (Count)
system.cpu0.commit.numCommittedDist::1         975265      7.41%     67.77% # Number of insts commited each cycle (Count)
system.cpu0.commit.numCommittedDist::2         339857      2.58%     70.36% # Number of insts commited each cycle (Count)
system.cpu0.commit.numCommittedDist::3        1043327      7.93%     78.28% # Number of insts commited each cycle (Count)
system.cpu0.commit.numCommittedDist::4         282760      2.15%     80.43% # Number of insts commited each cycle (Count)
system.cpu0.commit.numCommittedDist::5         313942      2.39%     82.82% # Number of insts commited each cycle (Count)
system.cpu0.commit.numCommittedDist::6         208332      1.58%     84.40% # Number of insts commited each cycle (Count)
system.cpu0.commit.numCommittedDist::7         167641      1.27%     85.68% # Number of insts commited each cycle (Count)
system.cpu0.commit.numCommittedDist::8        1884877     14.32%    100.00% # Number of insts commited each cycle (Count)
system.cpu0.commit.numCommittedDist::overflows            0      0.00%    100.00% # Number of insts commited each cycle (Count)
system.cpu0.commit.numCommittedDist::min_value            0                       # Number of insts commited each cycle (Count)
system.cpu0.commit.numCommittedDist::max_value            8                       # Number of insts commited each cycle (Count)
system.cpu0.commit.numCommittedDist::total     13158690                       # Number of insts commited each cycle (Count)
system.cpu0.commit.instsCommitted            13093594                       # Number of instructions committed (Count)
system.cpu0.commit.opsCommitted              24988205                       # Number of ops (including micro ops) committed (Count)
system.cpu0.commit.memRefs                    3436575                       # Number of memory references committed (Count)
system.cpu0.commit.loads                      2425880                       # Number of loads committed (Count)
system.cpu0.commit.amos                             0                       # Number of atomic instructions committed (Count)
system.cpu0.commit.membars                      18576                       # Number of memory barriers committed (Count)
system.cpu0.commit.branches                   3174462                       # Number of branches committed (Count)
system.cpu0.commit.vectorInstructions               0                       # Number of committed Vector instructions. (Count)
system.cpu0.commit.floating                     96484                       # Number of committed floating point instructions. (Count)
system.cpu0.commit.integer                   24823006                       # Number of committed integer instructions. (Count)
system.cpu0.commit.functionCalls                44857                       # Number of function calls committed. (Count)
system.cpu0.commit.committedInstType_0::No_OpClass        87208      0.35%      0.35% # Class of committed instruction (Count)
system.cpu0.commit.committedInstType_0::IntAlu     21248426     85.03%     85.38% # Class of committed instruction (Count)
system.cpu0.commit.committedInstType_0::IntMult       120804      0.48%     85.87% # Class of committed instruction (Count)
system.cpu0.commit.committedInstType_0::IntDiv        37798      0.15%     86.02% # Class of committed instruction (Count)
system.cpu0.commit.committedInstType_0::FloatAdd         6363      0.03%     86.04% # Class of committed instruction (Count)
system.cpu0.commit.committedInstType_0::FloatCmp            0      0.00%     86.04% # Class of committed instruction (Count)
system.cpu0.commit.committedInstType_0::FloatCvt         2304      0.01%     86.05% # Class of committed instruction (Count)
system.cpu0.commit.committedInstType_0::FloatMult            0      0.00%     86.05% # Class of committed instruction (Count)
system.cpu0.commit.committedInstType_0::FloatMultAcc            0      0.00%     86.05% # Class of committed instruction (Count)
system.cpu0.commit.committedInstType_0::FloatDiv            0      0.00%     86.05% # Class of committed instruction (Count)
system.cpu0.commit.committedInstType_0::FloatMisc            0      0.00%     86.05% # Class of committed instruction (Count)
system.cpu0.commit.committedInstType_0::FloatSqrt            0      0.00%     86.05% # Class of committed instruction (Count)
system.cpu0.commit.committedInstType_0::SimdAdd         7130      0.03%     86.08% # Class of committed instruction (Count)
system.cpu0.commit.committedInstType_0::SimdAddAcc            0      0.00%     86.08% # Class of committed instruction (Count)
system.cpu0.commit.committedInstType_0::SimdAlu        13046      0.05%     86.13% # Class of committed instruction (Count)
system.cpu0.commit.committedInstType_0::SimdCmp            6      0.00%     86.13% # Class of committed instruction (Count)
system.cpu0.commit.committedInstType_0::SimdCvt        14648      0.06%     86.19% # Class of committed instruction (Count)
system.cpu0.commit.committedInstType_0::SimdMisc        12815      0.05%     86.24% # Class of committed instruction (Count)
system.cpu0.commit.committedInstType_0::SimdMult            0      0.00%     86.24% # Class of committed instruction (Count)
system.cpu0.commit.committedInstType_0::SimdMultAcc            0      0.00%     86.24% # Class of committed instruction (Count)
system.cpu0.commit.committedInstType_0::SimdShift         1070      0.00%     86.25% # Class of committed instruction (Count)
system.cpu0.commit.committedInstType_0::SimdShiftAcc            0      0.00%     86.25% # Class of committed instruction (Count)
system.cpu0.commit.committedInstType_0::SimdDiv            0      0.00%     86.25% # Class of committed instruction (Count)
system.cpu0.commit.committedInstType_0::SimdSqrt            0      0.00%     86.25% # Class of committed instruction (Count)
system.cpu0.commit.committedInstType_0::SimdFloatAdd            4      0.00%     86.25% # Class of committed instruction (Count)
system.cpu0.commit.committedInstType_0::SimdFloatAlu            0      0.00%     86.25% # Class of committed instruction (Count)
system.cpu0.commit.committedInstType_0::SimdFloatCmp            0      0.00%     86.25% # Class of committed instruction (Count)
system.cpu0.commit.committedInstType_0::SimdFloatCvt            6      0.00%     86.25% # Class of committed instruction (Count)
system.cpu0.commit.committedInstType_0::SimdFloatDiv            2      0.00%     86.25% # Class of committed instruction (Count)
system.cpu0.commit.committedInstType_0::SimdFloatMisc            0      0.00%     86.25% # Class of committed instruction (Count)
system.cpu0.commit.committedInstType_0::SimdFloatMult            0      0.00%     86.25% # Class of committed instruction (Count)
system.cpu0.commit.committedInstType_0::SimdFloatMultAcc            0      0.00%     86.25% # Class of committed instruction (Count)
system.cpu0.commit.committedInstType_0::SimdFloatSqrt            0      0.00%     86.25% # Class of committed instruction (Count)
system.cpu0.commit.committedInstType_0::SimdReduceAdd            0      0.00%     86.25% # Class of committed instruction (Count)
system.cpu0.commit.committedInstType_0::SimdReduceAlu            0      0.00%     86.25% # Class of committed instruction (Count)
system.cpu0.commit.committedInstType_0::SimdReduceCmp            0      0.00%     86.25% # Class of committed instruction (Count)
system.cpu0.commit.committedInstType_0::SimdFloatReduceAdd            0      0.00%     86.25% # Class of committed instruction (Count)
system.cpu0.commit.committedInstType_0::SimdFloatReduceCmp            0      0.00%     86.25% # Class of committed instruction (Count)
system.cpu0.commit.committedInstType_0::SimdAes            0      0.00%     86.25% # Class of committed instruction (Count)
system.cpu0.commit.committedInstType_0::SimdAesMix            0      0.00%     86.25% # Class of committed instruction (Count)
system.cpu0.commit.committedInstType_0::SimdSha1Hash            0      0.00%     86.25% # Class of committed instruction (Count)
system.cpu0.commit.committedInstType_0::SimdSha1Hash2            0      0.00%     86.25% # Class of committed instruction (Count)
system.cpu0.commit.committedInstType_0::SimdSha256Hash            0      0.00%     86.25% # Class of committed instruction (Count)
system.cpu0.commit.committedInstType_0::SimdSha256Hash2            0      0.00%     86.25% # Class of committed instruction (Count)
system.cpu0.commit.committedInstType_0::SimdShaSigma2            0      0.00%     86.25% # Class of committed instruction (Count)
system.cpu0.commit.committedInstType_0::SimdShaSigma3            0      0.00%     86.25% # Class of committed instruction (Count)
system.cpu0.commit.committedInstType_0::SimdPredAlu            0      0.00%     86.25% # Class of committed instruction (Count)
system.cpu0.commit.committedInstType_0::MemRead      2405793      9.63%     95.87% # Class of committed instruction (Count)
system.cpu0.commit.committedInstType_0::MemWrite       994704      3.98%     99.86% # Class of committed instruction (Count)
system.cpu0.commit.committedInstType_0::FloatMemRead        20087      0.08%     99.94% # Class of committed instruction (Count)
system.cpu0.commit.committedInstType_0::FloatMemWrite        15991      0.06%    100.00% # Class of committed instruction (Count)
system.cpu0.commit.committedInstType_0::IprAccess            0      0.00%    100.00% # Class of committed instruction (Count)
system.cpu0.commit.committedInstType_0::InstPrefetch            0      0.00%    100.00% # Class of committed instruction (Count)
system.cpu0.commit.committedInstType_0::total     24988205                       # Class of committed instruction (Count)
system.cpu0.commit.commitEligibleSamples      1884877                       # number cycles where commit BW limit reached (Cycle)
system.cpu0.dcache.demandHits::cpu0.data      3289983                       # number of demand (read+write) hits (Count)
system.cpu0.dcache.demandHits::total          3289983                       # number of demand (read+write) hits (Count)
system.cpu0.dcache.overallHits::cpu0.data      3289983                       # number of overall hits (Count)
system.cpu0.dcache.overallHits::total         3289983                       # number of overall hits (Count)
system.cpu0.dcache.demandMisses::cpu0.data       416767                       # number of demand (read+write) misses (Count)
system.cpu0.dcache.demandMisses::total         416767                       # number of demand (read+write) misses (Count)
system.cpu0.dcache.overallMisses::cpu0.data       416767                       # number of overall misses (Count)
system.cpu0.dcache.overallMisses::total        416767                       # number of overall misses (Count)
system.cpu0.dcache.demandMissLatency::cpu0.data  18448874426                       # number of demand (read+write) miss ticks (Tick)
system.cpu0.dcache.demandMissLatency::total  18448874426                       # number of demand (read+write) miss ticks (Tick)
system.cpu0.dcache.overallMissLatency::cpu0.data  18448874426                       # number of overall miss ticks (Tick)
system.cpu0.dcache.overallMissLatency::total  18448874426                       # number of overall miss ticks (Tick)
system.cpu0.dcache.demandAccesses::cpu0.data      3706750                       # number of demand (read+write) accesses (Count)
system.cpu0.dcache.demandAccesses::total      3706750                       # number of demand (read+write) accesses (Count)
system.cpu0.dcache.overallAccesses::cpu0.data      3706750                       # number of overall (read+write) accesses (Count)
system.cpu0.dcache.overallAccesses::total      3706750                       # number of overall (read+write) accesses (Count)
system.cpu0.dcache.demandMissRate::cpu0.data     0.112435                       # miss rate for demand accesses (Ratio)
system.cpu0.dcache.demandMissRate::total     0.112435                       # miss rate for demand accesses (Ratio)
system.cpu0.dcache.overallMissRate::cpu0.data     0.112435                       # miss rate for overall accesses (Ratio)
system.cpu0.dcache.overallMissRate::total     0.112435                       # miss rate for overall accesses (Ratio)
system.cpu0.dcache.demandAvgMissLatency::cpu0.data 44266.639216                       # average overall miss latency ((Cycle/Count))
system.cpu0.dcache.demandAvgMissLatency::total 44266.639216                       # average overall miss latency ((Cycle/Count))
system.cpu0.dcache.overallAvgMissLatency::cpu0.data 44266.639216                       # average overall miss latency ((Cycle/Count))
system.cpu0.dcache.overallAvgMissLatency::total 44266.639216                       # average overall miss latency ((Cycle/Count))
system.cpu0.dcache.blockedCycles::no_mshrs       180860                       # number of cycles access was blocked (Cycle)
system.cpu0.dcache.blockedCycles::no_targets         2621                       # number of cycles access was blocked (Cycle)
system.cpu0.dcache.blockedCauses::no_mshrs        11773                       # number of times access was blocked (Count)
system.cpu0.dcache.blockedCauses::no_targets           81                       # number of times access was blocked (Count)
system.cpu0.dcache.avgBlocked::no_mshrs     15.362270                       # average number of cycles each access was blocked ((Cycle/Count))
system.cpu0.dcache.avgBlocked::no_targets    32.358025                       # average number of cycles each access was blocked ((Cycle/Count))
system.cpu0.dcache.writebacks::writebacks        71080                       # number of writebacks (Count)
system.cpu0.dcache.writebacks::total            71080                       # number of writebacks (Count)
system.cpu0.dcache.demandMshrHits::cpu0.data       282655                       # number of demand (read+write) MSHR hits (Count)
system.cpu0.dcache.demandMshrHits::total       282655                       # number of demand (read+write) MSHR hits (Count)
system.cpu0.dcache.overallMshrHits::cpu0.data       282655                       # number of overall MSHR hits (Count)
system.cpu0.dcache.overallMshrHits::total       282655                       # number of overall MSHR hits (Count)
system.cpu0.dcache.demandMshrMisses::cpu0.data       134112                       # number of demand (read+write) MSHR misses (Count)
system.cpu0.dcache.demandMshrMisses::total       134112                       # number of demand (read+write) MSHR misses (Count)
system.cpu0.dcache.overallMshrMisses::cpu0.data       134112                       # number of overall MSHR misses (Count)
system.cpu0.dcache.overallMshrMisses::total       134112                       # number of overall MSHR misses (Count)
system.cpu0.dcache.demandMshrMissLatency::cpu0.data   6022428426                       # number of demand (read+write) MSHR miss ticks (Tick)
system.cpu0.dcache.demandMshrMissLatency::total   6022428426                       # number of demand (read+write) MSHR miss ticks (Tick)
system.cpu0.dcache.overallMshrMissLatency::cpu0.data   6022428426                       # number of overall MSHR miss ticks (Tick)
system.cpu0.dcache.overallMshrMissLatency::total   6022428426                       # number of overall MSHR miss ticks (Tick)
system.cpu0.dcache.demandMshrMissRate::cpu0.data     0.036180                       # mshr miss ratio for demand accesses (Ratio)
system.cpu0.dcache.demandMshrMissRate::total     0.036180                       # mshr miss ratio for demand accesses (Ratio)
system.cpu0.dcache.overallMshrMissRate::cpu0.data     0.036180                       # mshr miss ratio for overall accesses (Ratio)
system.cpu0.dcache.overallMshrMissRate::total     0.036180                       # mshr miss ratio for overall accesses (Ratio)
system.cpu0.dcache.demandAvgMshrMissLatency::cpu0.data 44905.962375                       # average overall mshr miss latency ((Cycle/Count))
system.cpu0.dcache.demandAvgMshrMissLatency::total 44905.962375                       # average overall mshr miss latency ((Cycle/Count))
system.cpu0.dcache.overallAvgMshrMissLatency::cpu0.data 44905.962375                       # average overall mshr miss latency ((Cycle/Count))
system.cpu0.dcache.overallAvgMshrMissLatency::total 44905.962375                       # average overall mshr miss latency ((Cycle/Count))
system.cpu0.dcache.replacements                125145                       # number of replacements (Count)
system.cpu0.dcache.ReadReq.hits::cpu0.data      2313662                       # number of ReadReq hits (Count)
system.cpu0.dcache.ReadReq.hits::total        2313662                       # number of ReadReq hits (Count)
system.cpu0.dcache.ReadReq.misses::cpu0.data       382380                       # number of ReadReq misses (Count)
system.cpu0.dcache.ReadReq.misses::total       382380                       # number of ReadReq misses (Count)
system.cpu0.dcache.ReadReq.missLatency::cpu0.data  16308013000                       # number of ReadReq miss ticks (Tick)
system.cpu0.dcache.ReadReq.missLatency::total  16308013000                       # number of ReadReq miss ticks (Tick)
system.cpu0.dcache.ReadReq.accesses::cpu0.data      2696042                       # number of ReadReq accesses(hits+misses) (Count)
system.cpu0.dcache.ReadReq.accesses::total      2696042                       # number of ReadReq accesses(hits+misses) (Count)
system.cpu0.dcache.ReadReq.missRate::cpu0.data     0.141830                       # miss rate for ReadReq accesses (Ratio)
system.cpu0.dcache.ReadReq.missRate::total     0.141830                       # miss rate for ReadReq accesses (Ratio)
system.cpu0.dcache.ReadReq.avgMissLatency::cpu0.data 42648.708091                       # average ReadReq miss latency ((Tick/Count))
system.cpu0.dcache.ReadReq.avgMissLatency::total 42648.708091                       # average ReadReq miss latency ((Tick/Count))
system.cpu0.dcache.ReadReq.mshrHits::cpu0.data       282635                       # number of ReadReq MSHR hits (Count)
system.cpu0.dcache.ReadReq.mshrHits::total       282635                       # number of ReadReq MSHR hits (Count)
system.cpu0.dcache.ReadReq.mshrMisses::cpu0.data        99745                       # number of ReadReq MSHR misses (Count)
system.cpu0.dcache.ReadReq.mshrMisses::total        99745                       # number of ReadReq MSHR misses (Count)
system.cpu0.dcache.ReadReq.mshrMissLatency::cpu0.data   3916511500                       # number of ReadReq MSHR miss ticks (Tick)
system.cpu0.dcache.ReadReq.mshrMissLatency::total   3916511500                       # number of ReadReq MSHR miss ticks (Tick)
system.cpu0.dcache.ReadReq.mshrMissRate::cpu0.data     0.036997                       # mshr miss rate for ReadReq accesses (Ratio)
system.cpu0.dcache.ReadReq.mshrMissRate::total     0.036997                       # mshr miss rate for ReadReq accesses (Ratio)
system.cpu0.dcache.ReadReq.avgMshrMissLatency::cpu0.data 39265.241365                       # average ReadReq mshr miss latency ((Tick/Count))
system.cpu0.dcache.ReadReq.avgMshrMissLatency::total 39265.241365                       # average ReadReq mshr miss latency ((Tick/Count))
system.cpu0.dcache.WriteReq.hits::cpu0.data       976321                       # number of WriteReq hits (Count)
system.cpu0.dcache.WriteReq.hits::total        976321                       # number of WriteReq hits (Count)
system.cpu0.dcache.WriteReq.misses::cpu0.data        34387                       # number of WriteReq misses (Count)
system.cpu0.dcache.WriteReq.misses::total        34387                       # number of WriteReq misses (Count)
system.cpu0.dcache.WriteReq.missLatency::cpu0.data   2140861426                       # number of WriteReq miss ticks (Tick)
system.cpu0.dcache.WriteReq.missLatency::total   2140861426                       # number of WriteReq miss ticks (Tick)
system.cpu0.dcache.WriteReq.accesses::cpu0.data      1010708                       # number of WriteReq accesses(hits+misses) (Count)
system.cpu0.dcache.WriteReq.accesses::total      1010708                       # number of WriteReq accesses(hits+misses) (Count)
system.cpu0.dcache.WriteReq.missRate::cpu0.data     0.034023                       # miss rate for WriteReq accesses (Ratio)
system.cpu0.dcache.WriteReq.missRate::total     0.034023                       # miss rate for WriteReq accesses (Ratio)
system.cpu0.dcache.WriteReq.avgMissLatency::cpu0.data 62257.871463                       # average WriteReq miss latency ((Tick/Count))
system.cpu0.dcache.WriteReq.avgMissLatency::total 62257.871463                       # average WriteReq miss latency ((Tick/Count))
system.cpu0.dcache.WriteReq.mshrHits::cpu0.data           20                       # number of WriteReq MSHR hits (Count)
system.cpu0.dcache.WriteReq.mshrHits::total           20                       # number of WriteReq MSHR hits (Count)
system.cpu0.dcache.WriteReq.mshrMisses::cpu0.data        34367                       # number of WriteReq MSHR misses (Count)
system.cpu0.dcache.WriteReq.mshrMisses::total        34367                       # number of WriteReq MSHR misses (Count)
system.cpu0.dcache.WriteReq.mshrMissLatency::cpu0.data   2105916926                       # number of WriteReq MSHR miss ticks (Tick)
system.cpu0.dcache.WriteReq.mshrMissLatency::total   2105916926                       # number of WriteReq MSHR miss ticks (Tick)
system.cpu0.dcache.WriteReq.mshrMissRate::cpu0.data     0.034003                       # mshr miss rate for WriteReq accesses (Ratio)
system.cpu0.dcache.WriteReq.mshrMissRate::total     0.034003                       # mshr miss rate for WriteReq accesses (Ratio)
system.cpu0.dcache.WriteReq.avgMshrMissLatency::cpu0.data 61277.298746                       # average WriteReq mshr miss latency ((Tick/Count))
system.cpu0.dcache.WriteReq.avgMshrMissLatency::total 61277.298746                       # average WriteReq mshr miss latency ((Tick/Count))
system.cpu0.dcache.power_state.pwrStateResidencyTicks::UNDEFINED   7101520000                       # Cumulative time (in ticks) in various power states (Tick)
system.cpu0.dcache.tags.tagsInUse          506.549513                       # Average ticks per tags in use ((Tick/Count))
system.cpu0.dcache.tags.totalRefs             3425937                       # Total number of references to valid blocks. (Count)
system.cpu0.dcache.tags.sampledRefs            125657                       # Sample count of references to valid blocks. (Count)
system.cpu0.dcache.tags.avgRefs             27.264195                       # Average number of references to valid blocks. ((Count/Count))
system.cpu0.dcache.tags.warmupTick             198000                       # The tick when the warmup percentage was hit. (Tick)
system.cpu0.dcache.tags.occupancies::cpu0.data   506.549513                       # Average occupied blocks per tick, per requestor ((Count/Tick))
system.cpu0.dcache.tags.avgOccs::cpu0.data     0.989355                       # Average percentage of cache occupancy ((Ratio/Tick))
system.cpu0.dcache.tags.avgOccs::total       0.989355                       # Average percentage of cache occupancy ((Ratio/Tick))
system.cpu0.dcache.tags.occupanciesTaskId::1024          512                       # Occupied blocks per task id (Count)
system.cpu0.dcache.tags.ageTaskId_1024::1          349                       # Occupied blocks per task id, per block age (Count)
system.cpu0.dcache.tags.ageTaskId_1024::2          127                       # Occupied blocks per task id, per block age (Count)
system.cpu0.dcache.tags.ageTaskId_1024::3           36                       # Occupied blocks per task id, per block age (Count)
system.cpu0.dcache.tags.ratioOccsTaskId::1024            1                       # Ratio of occupied blocks and all blocks, per task id (Ratio)
system.cpu0.dcache.tags.tagAccesses           7539157                       # Number of tag accesses (Count)
system.cpu0.dcache.tags.dataAccesses          7539157                       # Number of data accesses (Count)
system.cpu0.dcache.tags.power_state.pwrStateResidencyTicks::UNDEFINED   7101520000                       # Cumulative time (in ticks) in various power states (Tick)
system.cpu0.decode.idleCycles                 1363866                       # Number of cycles decode is idle (Cycle)
system.cpu0.decode.blockedCycles              7698657                       # Number of cycles decode is blocked (Cycle)
system.cpu0.decode.runCycles                  4136269                       # Number of cycles decode is running (Cycle)
system.cpu0.decode.unblockCycles               538476                       # Number of cycles decode is unblocking (Cycle)
system.cpu0.decode.squashCycles                 83842                       # Number of cycles decode is squashing (Cycle)
system.cpu0.decode.branchResolved             2288764                       # Number of times decode resolved a branch (Count)
system.cpu0.decode.branchMispred                 1555                       # Number of times decode detected a branch misprediction (Count)
system.cpu0.decode.decodedInsts              30908251                       # Number of instructions handled by decode (Count)
system.cpu0.decode.squashedInsts                 7323                       # Number of squashed instructions handled by decode (Count)
system.cpu0.dtb_walker_cache.blockedCycles::no_mshrs            0                       # number of cycles access was blocked (Cycle)
system.cpu0.dtb_walker_cache.blockedCycles::no_targets            0                       # number of cycles access was blocked (Cycle)
system.cpu0.dtb_walker_cache.blockedCauses::no_mshrs            0                       # number of times access was blocked (Count)
system.cpu0.dtb_walker_cache.blockedCauses::no_targets            0                       # number of times access was blocked (Count)
system.cpu0.dtb_walker_cache.avgBlocked::no_mshrs          nan                       # average number of cycles each access was blocked ((Cycle/Count))
system.cpu0.dtb_walker_cache.avgBlocked::no_targets          nan                       # average number of cycles each access was blocked ((Cycle/Count))
system.cpu0.dtb_walker_cache.replacements            0                       # number of replacements (Count)
system.cpu0.dtb_walker_cache.power_state.pwrStateResidencyTicks::UNDEFINED   7101520000                       # Cumulative time (in ticks) in various power states (Tick)
system.cpu0.dtb_walker_cache.tags.tagsInUse            0                       # Average ticks per tags in use ((Tick/Count))
system.cpu0.dtb_walker_cache.tags.totalRefs            0                       # Total number of references to valid blocks. (Count)
system.cpu0.dtb_walker_cache.tags.sampledRefs            0                       # Sample count of references to valid blocks. (Count)
system.cpu0.dtb_walker_cache.tags.avgRefs          nan                       # Average number of references to valid blocks. ((Count/Count))
system.cpu0.dtb_walker_cache.tags.warmupTick            0                       # The tick when the warmup percentage was hit. (Tick)
system.cpu0.dtb_walker_cache.tags.tagAccesses            0                       # Number of tag accesses (Count)
system.cpu0.dtb_walker_cache.tags.dataAccesses            0                       # Number of data accesses (Count)
system.cpu0.dtb_walker_cache.tags.power_state.pwrStateResidencyTicks::UNDEFINED   7101520000                       # Cumulative time (in ticks) in various power states (Tick)
system.cpu0.fetch.icacheStallCycles           1371354                       # Number of cycles fetch is stalled on an Icache miss (Cycle)
system.cpu0.fetch.insts                      17189272                       # Number of instructions fetch has processed (Count)
system.cpu0.fetch.branches                    3986110                       # Number of branches that fetch encountered (Count)
system.cpu0.fetch.predictedBranches           2477688                       # Number of branches that fetch has predicted taken (Count)
system.cpu0.fetch.cycles                     12352783                       # Number of cycles fetch has run and was not squashing or blocked (Cycle)
system.cpu0.fetch.squashCycles                 170726                       # Number of cycles fetch has spent squashing (Cycle)
system.cpu0.fetch.miscStallCycles                1496                       # Number of cycles fetch has spent waiting on interrupts, or bad addresses, or out of MSHRs (Cycle)
system.cpu0.fetch.pendingTrapStallCycles         9832                       # Number of stall cycles due to pending traps (Cycle)
system.cpu0.fetch.pendingQuiesceStallCycles           36                       # Number of stall cycles due to pending quiesce instructions (Cycle)
system.cpu0.fetch.icacheWaitRetryStallCycles          246                       # Number of stall cycles due to full MSHR (Cycle)
system.cpu0.fetch.cacheLines                  1235720                       # Number of cache lines fetched (Count)
system.cpu0.fetch.icacheSquashes                12624                       # Number of outstanding Icache misses that were squashed (Count)
system.cpu0.fetch.nisnDist::samples          13821110                       # Number of instructions fetched each cycle (Total) (Count)
system.cpu0.fetch.nisnDist::mean             2.341714                       # Number of instructions fetched each cycle (Total) (Count)
system.cpu0.fetch.nisnDist::stdev            3.273157                       # Number of instructions fetched each cycle (Total) (Count)
system.cpu0.fetch.nisnDist::underflows              0      0.00%      0.00% # Number of instructions fetched each cycle (Total) (Count)
system.cpu0.fetch.nisnDist::0                 8383275     60.66%     60.66% # Number of instructions fetched each cycle (Total) (Count)
system.cpu0.fetch.nisnDist::1                  268406      1.94%     62.60% # Number of instructions fetched each cycle (Total) (Count)
system.cpu0.fetch.nisnDist::2                  510574      3.69%     66.29% # Number of instructions fetched each cycle (Total) (Count)
system.cpu0.fetch.nisnDist::3                  531149      3.84%     70.13% # Number of instructions fetched each cycle (Total) (Count)
system.cpu0.fetch.nisnDist::4                  230498      1.67%     71.80% # Number of instructions fetched each cycle (Total) (Count)
system.cpu0.fetch.nisnDist::5                  239160      1.73%     73.53% # Number of instructions fetched each cycle (Total) (Count)
system.cpu0.fetch.nisnDist::6                  745645      5.39%     78.93% # Number of instructions fetched each cycle (Total) (Count)
system.cpu0.fetch.nisnDist::7                  408801      2.96%     81.89% # Number of instructions fetched each cycle (Total) (Count)
system.cpu0.fetch.nisnDist::8                 2503602     18.11%    100.00% # Number of instructions fetched each cycle (Total) (Count)
system.cpu0.fetch.nisnDist::overflows               0      0.00%    100.00% # Number of instructions fetched each cycle (Total) (Count)
system.cpu0.fetch.nisnDist::min_value               0                       # Number of instructions fetched each cycle (Total) (Count)
system.cpu0.fetch.nisnDist::max_value               8                       # Number of instructions fetched each cycle (Total) (Count)
system.cpu0.fetch.nisnDist::total            13821110                       # Number of instructions fetched each cycle (Total) (Count)
system.cpu0.fetch.branchRate                 0.282169                       # Number of branch fetches per cycle (Ratio)
system.cpu0.fetch.rate                       1.216793                       # Number of inst fetches per cycle ((Count/Cycle))
system.cpu0.icache.demandHits::cpu0.inst      1231183                       # number of demand (read+write) hits (Count)
system.cpu0.icache.demandHits::total          1231183                       # number of demand (read+write) hits (Count)
system.cpu0.icache.overallHits::cpu0.inst      1231183                       # number of overall hits (Count)
system.cpu0.icache.overallHits::total         1231183                       # number of overall hits (Count)
system.cpu0.icache.demandMisses::cpu0.inst         4537                       # number of demand (read+write) misses (Count)
system.cpu0.icache.demandMisses::total           4537                       # number of demand (read+write) misses (Count)
system.cpu0.icache.overallMisses::cpu0.inst         4537                       # number of overall misses (Count)
system.cpu0.icache.overallMisses::total          4537                       # number of overall misses (Count)
system.cpu0.icache.demandMissLatency::cpu0.inst    370462498                       # number of demand (read+write) miss ticks (Tick)
system.cpu0.icache.demandMissLatency::total    370462498                       # number of demand (read+write) miss ticks (Tick)
system.cpu0.icache.overallMissLatency::cpu0.inst    370462498                       # number of overall miss ticks (Tick)
system.cpu0.icache.overallMissLatency::total    370462498                       # number of overall miss ticks (Tick)
system.cpu0.icache.demandAccesses::cpu0.inst      1235720                       # number of demand (read+write) accesses (Count)
system.cpu0.icache.demandAccesses::total      1235720                       # number of demand (read+write) accesses (Count)
system.cpu0.icache.overallAccesses::cpu0.inst      1235720                       # number of overall (read+write) accesses (Count)
system.cpu0.icache.overallAccesses::total      1235720                       # number of overall (read+write) accesses (Count)
system.cpu0.icache.demandMissRate::cpu0.inst     0.003672                       # miss rate for demand accesses (Ratio)
system.cpu0.icache.demandMissRate::total     0.003672                       # miss rate for demand accesses (Ratio)
system.cpu0.icache.overallMissRate::cpu0.inst     0.003672                       # miss rate for overall accesses (Ratio)
system.cpu0.icache.overallMissRate::total     0.003672                       # miss rate for overall accesses (Ratio)
system.cpu0.icache.demandAvgMissLatency::cpu0.inst 81653.625303                       # average overall miss latency ((Cycle/Count))
system.cpu0.icache.demandAvgMissLatency::total 81653.625303                       # average overall miss latency ((Cycle/Count))
system.cpu0.icache.overallAvgMissLatency::cpu0.inst 81653.625303                       # average overall miss latency ((Cycle/Count))
system.cpu0.icache.overallAvgMissLatency::total 81653.625303                       # average overall miss latency ((Cycle/Count))
system.cpu0.icache.blockedCycles::no_mshrs         1662                       # number of cycles access was blocked (Cycle)
system.cpu0.icache.blockedCycles::no_targets            0                       # number of cycles access was blocked (Cycle)
system.cpu0.icache.blockedCauses::no_mshrs           25                       # number of times access was blocked (Count)
system.cpu0.icache.blockedCauses::no_targets            0                       # number of times access was blocked (Count)
system.cpu0.icache.avgBlocked::no_mshrs     66.480000                       # average number of cycles each access was blocked ((Cycle/Count))
system.cpu0.icache.avgBlocked::no_targets          nan                       # average number of cycles each access was blocked ((Cycle/Count))
system.cpu0.icache.writebacks::writebacks         3130                       # number of writebacks (Count)
system.cpu0.icache.writebacks::total             3130                       # number of writebacks (Count)
system.cpu0.icache.demandMshrHits::cpu0.inst          895                       # number of demand (read+write) MSHR hits (Count)
system.cpu0.icache.demandMshrHits::total          895                       # number of demand (read+write) MSHR hits (Count)
system.cpu0.icache.overallMshrHits::cpu0.inst          895                       # number of overall MSHR hits (Count)
system.cpu0.icache.overallMshrHits::total          895                       # number of overall MSHR hits (Count)
system.cpu0.icache.demandMshrMisses::cpu0.inst         3642                       # number of demand (read+write) MSHR misses (Count)
system.cpu0.icache.demandMshrMisses::total         3642                       # number of demand (read+write) MSHR misses (Count)
system.cpu0.icache.overallMshrMisses::cpu0.inst         3642                       # number of overall MSHR misses (Count)
system.cpu0.icache.overallMshrMisses::total         3642                       # number of overall MSHR misses (Count)
system.cpu0.icache.demandMshrMissLatency::cpu0.inst    300436498                       # number of demand (read+write) MSHR miss ticks (Tick)
system.cpu0.icache.demandMshrMissLatency::total    300436498                       # number of demand (read+write) MSHR miss ticks (Tick)
system.cpu0.icache.overallMshrMissLatency::cpu0.inst    300436498                       # number of overall MSHR miss ticks (Tick)
system.cpu0.icache.overallMshrMissLatency::total    300436498                       # number of overall MSHR miss ticks (Tick)
system.cpu0.icache.demandMshrMissRate::cpu0.inst     0.002947                       # mshr miss ratio for demand accesses (Ratio)
system.cpu0.icache.demandMshrMissRate::total     0.002947                       # mshr miss ratio for demand accesses (Ratio)
system.cpu0.icache.overallMshrMissRate::cpu0.inst     0.002947                       # mshr miss ratio for overall accesses (Ratio)
system.cpu0.icache.overallMshrMissRate::total     0.002947                       # mshr miss ratio for overall accesses (Ratio)
system.cpu0.icache.demandAvgMshrMissLatency::cpu0.inst 82492.174080                       # average overall mshr miss latency ((Cycle/Count))
system.cpu0.icache.demandAvgMshrMissLatency::total 82492.174080                       # average overall mshr miss latency ((Cycle/Count))
system.cpu0.icache.overallAvgMshrMissLatency::cpu0.inst 82492.174080                       # average overall mshr miss latency ((Cycle/Count))
system.cpu0.icache.overallAvgMshrMissLatency::total 82492.174080                       # average overall mshr miss latency ((Cycle/Count))
system.cpu0.icache.replacements                  3130                       # number of replacements (Count)
system.cpu0.icache.ReadReq.hits::cpu0.inst      1231183                       # number of ReadReq hits (Count)
system.cpu0.icache.ReadReq.hits::total        1231183                       # number of ReadReq hits (Count)
system.cpu0.icache.ReadReq.misses::cpu0.inst         4537                       # number of ReadReq misses (Count)
system.cpu0.icache.ReadReq.misses::total         4537                       # number of ReadReq misses (Count)
system.cpu0.icache.ReadReq.missLatency::cpu0.inst    370462498                       # number of ReadReq miss ticks (Tick)
system.cpu0.icache.ReadReq.missLatency::total    370462498                       # number of ReadReq miss ticks (Tick)
system.cpu0.icache.ReadReq.accesses::cpu0.inst      1235720                       # number of ReadReq accesses(hits+misses) (Count)
system.cpu0.icache.ReadReq.accesses::total      1235720                       # number of ReadReq accesses(hits+misses) (Count)
system.cpu0.icache.ReadReq.missRate::cpu0.inst     0.003672                       # miss rate for ReadReq accesses (Ratio)
system.cpu0.icache.ReadReq.missRate::total     0.003672                       # miss rate for ReadReq accesses (Ratio)
system.cpu0.icache.ReadReq.avgMissLatency::cpu0.inst 81653.625303                       # average ReadReq miss latency ((Tick/Count))
system.cpu0.icache.ReadReq.avgMissLatency::total 81653.625303                       # average ReadReq miss latency ((Tick/Count))
system.cpu0.icache.ReadReq.mshrHits::cpu0.inst          895                       # number of ReadReq MSHR hits (Count)
system.cpu0.icache.ReadReq.mshrHits::total          895                       # number of ReadReq MSHR hits (Count)
system.cpu0.icache.ReadReq.mshrMisses::cpu0.inst         3642                       # number of ReadReq MSHR misses (Count)
system.cpu0.icache.ReadReq.mshrMisses::total         3642                       # number of ReadReq MSHR misses (Count)
system.cpu0.icache.ReadReq.mshrMissLatency::cpu0.inst    300436498                       # number of ReadReq MSHR miss ticks (Tick)
system.cpu0.icache.ReadReq.mshrMissLatency::total    300436498                       # number of ReadReq MSHR miss ticks (Tick)
system.cpu0.icache.ReadReq.mshrMissRate::cpu0.inst     0.002947                       # mshr miss rate for ReadReq accesses (Ratio)
system.cpu0.icache.ReadReq.mshrMissRate::total     0.002947                       # mshr miss rate for ReadReq accesses (Ratio)
system.cpu0.icache.ReadReq.avgMshrMissLatency::cpu0.inst 82492.174080                       # average ReadReq mshr miss latency ((Tick/Count))
system.cpu0.icache.ReadReq.avgMshrMissLatency::total 82492.174080                       # average ReadReq mshr miss latency ((Tick/Count))
system.cpu0.icache.power_state.pwrStateResidencyTicks::UNDEFINED   7101520000                       # Cumulative time (in ticks) in various power states (Tick)
system.cpu0.icache.tags.tagsInUse          505.412871                       # Average ticks per tags in use ((Tick/Count))
system.cpu0.icache.tags.totalRefs             1234825                       # Total number of references to valid blocks. (Count)
system.cpu0.icache.tags.sampledRefs              3642                       # Sample count of references to valid blocks. (Count)
system.cpu0.icache.tags.avgRefs            339.051345                       # Average number of references to valid blocks. ((Count/Count))
system.cpu0.icache.tags.warmupTick              95000                       # The tick when the warmup percentage was hit. (Tick)
system.cpu0.icache.tags.occupancies::cpu0.inst   505.412871                       # Average occupied blocks per tick, per requestor ((Count/Tick))
system.cpu0.icache.tags.avgOccs::cpu0.inst     0.987135                       # Average percentage of cache occupancy ((Ratio/Tick))
system.cpu0.icache.tags.avgOccs::total       0.987135                       # Average percentage of cache occupancy ((Ratio/Tick))
system.cpu0.icache.tags.occupanciesTaskId::1024          512                       # Occupied blocks per task id (Count)
system.cpu0.icache.tags.ageTaskId_1024::1          348                       # Occupied blocks per task id, per block age (Count)
system.cpu0.icache.tags.ageTaskId_1024::2           60                       # Occupied blocks per task id, per block age (Count)
system.cpu0.icache.tags.ageTaskId_1024::3          104                       # Occupied blocks per task id, per block age (Count)
system.cpu0.icache.tags.ratioOccsTaskId::1024            1                       # Ratio of occupied blocks and all blocks, per task id (Ratio)
system.cpu0.icache.tags.tagAccesses           2475082                       # Number of tag accesses (Count)
system.cpu0.icache.tags.dataAccesses          2475082                       # Number of data accesses (Count)
system.cpu0.icache.tags.power_state.pwrStateResidencyTicks::UNDEFINED   7101520000                       # Cumulative time (in ticks) in various power states (Tick)
system.cpu0.iew.idleCycles                          0                       # Number of cycles IEW is idle (Cycle)
system.cpu0.iew.squashCycles                    83842                       # Number of cycles IEW is squashing (Cycle)
system.cpu0.iew.blockCycles                   3257303                       # Number of cycles IEW is blocking (Cycle)
system.cpu0.iew.unblockCycles                  190728                       # Number of cycles IEW is unblocking (Cycle)
system.cpu0.iew.dispatchedInsts              29718322                       # Number of instructions dispatched to IQ (Count)
system.cpu0.iew.dispSquashedInsts                1959                       # Number of squashed instructions skipped by dispatch (Count)
system.cpu0.iew.dispLoadInsts                 3050645                       # Number of dispatched load instructions (Count)
system.cpu0.iew.dispStoreInsts                1207718                       # Number of dispatched store instructions (Count)
system.cpu0.iew.dispNonSpecInsts                24418                       # Number of dispatched non-speculative instructions (Count)
system.cpu0.iew.iqFullEvents                    38268                       # Number of times the IQ has become full, causing a stall (Count)
system.cpu0.iew.lsqFullEvents                  129066                       # Number of times the LSQ has become full, causing a stall (Count)
system.cpu0.iew.memOrderViolationEvents           242                       # Number of memory order violations (Count)
system.cpu0.iew.predictedTakenIncorrect         53067                       # Number of branches that were predicted taken incorrectly (Count)
system.cpu0.iew.predictedNotTakenIncorrect        58861                       # Number of branches that were predicted not taken incorrectly (Count)
system.cpu0.iew.branchMispredicts              111928                       # Number of branch mispredicts detected at execute (Count)
system.cpu0.iew.instsToCommit                27877965                       # Cumulative count of insts sent to commit (Count)
system.cpu0.iew.writebackCount               27839719                       # Cumulative count of insts written-back (Count)
system.cpu0.iew.producerInst                 21589158                       # Number of instructions producing a value (Count)
system.cpu0.iew.consumerInst                 35510830                       # Number of instructions consuming a value (Count)
system.cpu0.iew.wbRate                       1.970716                       # Insts written-back per cycle ((Count/Cycle))
system.cpu0.iew.wbFanout                     0.607960                       # Average fanout of values written-back ((Count/Count))
system.cpu0.interrupts.clk_domain.clock          8000                       # Clock period in ticks (Tick)
system.cpu0.itb_walker_cache.blockedCycles::no_mshrs            0                       # number of cycles access was blocked (Cycle)
system.cpu0.itb_walker_cache.blockedCycles::no_targets            0                       # number of cycles access was blocked (Cycle)
system.cpu0.itb_walker_cache.blockedCauses::no_mshrs            0                       # number of times access was blocked (Count)
system.cpu0.itb_walker_cache.blockedCauses::no_targets            0                       # number of times access was blocked (Count)
system.cpu0.itb_walker_cache.avgBlocked::no_mshrs          nan                       # average number of cycles each access was blocked ((Cycle/Count))
system.cpu0.itb_walker_cache.avgBlocked::no_targets          nan                       # average number of cycles each access was blocked ((Cycle/Count))
system.cpu0.itb_walker_cache.replacements            0                       # number of replacements (Count)
system.cpu0.itb_walker_cache.power_state.pwrStateResidencyTicks::UNDEFINED   7101520000                       # Cumulative time (in ticks) in various power states (Tick)
system.cpu0.itb_walker_cache.tags.tagsInUse            0                       # Average ticks per tags in use ((Tick/Count))
system.cpu0.itb_walker_cache.tags.totalRefs            0                       # Total number of references to valid blocks. (Count)
system.cpu0.itb_walker_cache.tags.sampledRefs            0                       # Sample count of references to valid blocks. (Count)
system.cpu0.itb_walker_cache.tags.avgRefs          nan                       # Average number of references to valid blocks. ((Count/Count))
system.cpu0.itb_walker_cache.tags.warmupTick            0                       # The tick when the warmup percentage was hit. (Tick)
system.cpu0.itb_walker_cache.tags.tagAccesses            0                       # Number of tag accesses (Count)
system.cpu0.itb_walker_cache.tags.dataAccesses            0                       # Number of data accesses (Count)
system.cpu0.itb_walker_cache.tags.power_state.pwrStateResidencyTicks::UNDEFINED   7101520000                       # Cumulative time (in ticks) in various power states (Tick)
system.cpu0.lsq0.forwLoads                     102368                       # Number of loads that had data forwarded from stores (Count)
system.cpu0.lsq0.squashedLoads                 624765                       # Number of loads squashed (Count)
system.cpu0.lsq0.ignoredResponses                 167                       # Number of memory responses ignored because the instruction is squashed (Count)
system.cpu0.lsq0.memOrderViolation                242                       # Number of memory ordering violations (Count)
system.cpu0.lsq0.squashedStores                197023                       # Number of stores squashed (Count)
system.cpu0.lsq0.rescheduledLoads                  14                       # Number of loads that were rescheduled (Count)
system.cpu0.lsq0.blockedByCache                  9310                       # Number of times an access to memory failed due to the cache being blocked (Count)
system.cpu0.lsq0.loadToUse::samples           2425880                       # Distribution of cycle latency between the first time a load is issued and its completion (Unspecified)
system.cpu0.lsq0.loadToUse::mean            13.921997                       # Distribution of cycle latency between the first time a load is issued and its completion (Unspecified)
system.cpu0.lsq0.loadToUse::stdev           34.065993                       # Distribution of cycle latency between the first time a load is issued and its completion (Unspecified)
system.cpu0.lsq0.loadToUse::0-9               2117787     87.30%     87.30% # Distribution of cycle latency between the first time a load is issued and its completion (Unspecified)
system.cpu0.lsq0.loadToUse::10-19               10951      0.45%     87.75% # Distribution of cycle latency between the first time a load is issued and its completion (Unspecified)
system.cpu0.lsq0.loadToUse::20-29               35222      1.45%     89.20% # Distribution of cycle latency between the first time a load is issued and its completion (Unspecified)
system.cpu0.lsq0.loadToUse::30-39                8983      0.37%     89.57% # Distribution of cycle latency between the first time a load is issued and its completion (Unspecified)
system.cpu0.lsq0.loadToUse::40-49                5701      0.24%     89.81% # Distribution of cycle latency between the first time a load is issued and its completion (Unspecified)
[...]
system.mem_ctrls.bwTotal::cpu3.data         313794230                       # Total bandwidth to/from this memory ((Byte/Second))
system.mem_ctrls.bwTotal::total            1890506821                       # Total bandwidth to/from this memory ((Byte/Second))
system.mem_ctrls.power_state.pwrStateResidencyTicks::UNDEFINED   7101520000                       # Cumulative time (in ticks) in various power states (Tick)
system.membus.transDist::ReadResp               77664                       # Transaction distribution (Count)
system.membus.transDist::WritebackDirty         59791                       # Transaction distribution (Count)
system.membus.transDist::CleanEvict             57160                       # Transaction distribution (Count)
system.membus.transDist::UpgradeReq                20                       # Transaction distribution (Count)
system.membus.transDist::ReadExReq              72317                       # Transaction distribution (Count)
system.membus.transDist::ReadExResp             72317                       # Transaction distribution (Count)
system.membus.transDist::ReadSharedReq          77665                       # Transaction distribution (Count)
system.membus.pktCount_system.l3.mem_side_port::system.mem_ctrls.port       416934                       # Packet count per connected requestor and responder (Count)
system.membus.pktCount_system.l3.mem_side_port::total       416934                       # Packet count per connected requestor and responder (Count)
system.membus.pktCount::total                  416934                       # Packet count per connected requestor and responder (Count)
system.membus.pktSize_system.l3.mem_side_port::system.mem_ctrls.port     13425408                       # Cumulative packet size per connected requestor and responder (Byte)
system.membus.pktSize_system.l3.mem_side_port::total     13425408                       # Cumulative packet size per connected requestor and responder (Byte)
system.membus.pktSize::total                 13425408                       # Cumulative packet size per connected requestor and responder (Byte)
system.membus.snoops                                0                       # Total snoops (Count)
system.membus.snoopTraffic                          0                       # Total snoop traffic (Byte)
system.membus.snoopFanout::samples             168790                       # Request fanout histogram (Count)
system.membus.snoopFanout::mean                     0                       # Request fanout histogram (Count)
system.membus.snoopFanout::stdev                    0                       # Request fanout histogram (Count)
system.membus.snoopFanout::underflows               0      0.00%      0.00% # Request fanout histogram (Count)
system.membus.snoopFanout::0                   168790    100.00%    100.00% # Request fanout histogram (Count)
system.membus.snoopFanout::1                        0      0.00%    100.00% # Request fanout histogram (Count)
system.membus.snoopFanout::overflows                0      0.00%    100.00% # Request fanout histogram (Count)
system.membus.snoopFanout::min_value                0                       # Request fanout histogram (Count)
system.membus.snoopFanout::max_value                0                       # Request fanout histogram (Count)
system.membus.snoopFanout::total               168790                       # Request fanout histogram (Count)
system.membus.power_state.pwrStateResidencyTicks::UNDEFINED   7101520000                       # Cumulative time (in ticks) in various power states (Tick)
system.membus.reqLayer8.occupancy           572556652                       # Layer occupancy (ticks) (Tick)
system.membus.reqLayer8.utilization               0.1                       # Layer utilization (Ratio)
system.membus.respLayer1.occupancy          749905000                       # Layer occupancy (ticks) (Tick)
system.membus.respLayer1.utilization              0.1                       # Layer utilization (Ratio)
system.membus.snoop_filter.totRequests         290719                       # Total number of requests made to the snoop filter. (Count)
system.membus.snoop_filter.hitSingleRequests       121949                       # Number of requests hitting in the snoop filter with a single holder of the requested data. (Count)
system.membus.snoop_filter.hitMultiRequests            0                       # Number of requests hitting in the snoop filter with multiple (>1) holders of the requested data. (Count)
system.membus.snoop_filter.totSnoops                0                       # Total number of snoops made to the snoop filter. (Count)
system.membus.snoop_filter.hitSingleSnoops            0                       # Number of snoops hitting in the snoop filter with a single holder of the requested data. (Count)
system.membus.snoop_filter.hitMultiSnoops            0                       # Number of snoops hitting in the snoop filter with multiple (>1) holders of the requested data. (Count)
system.tol2bus.transDist::ReadResp             414903                       # Transaction distribution (Count)
system.tol2bus.transDist::WritebackDirty       565605                       # Transaction distribution (Count)
system.tol2bus.transDist::WritebackClean        12852                       # Transaction distribution (Count)
system.tol2bus.transDist::CleanEvict           353640                       # Transaction distribution (Count)
system.tol2bus.transDist::UpgradeReq            33942                       # Transaction distribution (Count)
system.tol2bus.transDist::UpgradeResp           33942                       # Transaction distribution (Count)
system.tol2bus.transDist::ReadExReq            103497                       # Transaction distribution (Count)
system.tol2bus.transDist::ReadExResp           103497                       # Transaction distribution (Count)
system.tol2bus.transDist::ReadCleanReq          14903                       # Transaction distribution (Count)
system.tol2bus.transDist::ReadSharedReq        400001                       # Transaction distribution (Count)
system.tol2bus.pktCount_system.cpu0.icache.mem_side_port::system.l2.cpu_side_port        10413                       # Packet count per connected requestor and responder (Count)
system.tol2bus.pktCount_system.cpu0.dcache.mem_side_port::system.l2.cpu_side_port       393379                       # Packet count per connected requestor and responder (Count)
system.tol2bus.pktCount_system.cpu1.icache.mem_side_port::system.l2.cpu_side_port        11009                       # Packet count per connected requestor and responder (Count)
system.tol2bus.pktCount_system.cpu1.dcache.mem_side_port::system.l2.cpu_side_port       395505                       # Packet count per connected requestor and responder (Count)
system.tol2bus.pktCount_system.cpu2.icache.mem_side_port::system.l2.cpu_side_port        10330                       # Packet count per connected requestor and responder (Count)
system.tol2bus.pktCount_system.cpu2.dcache.mem_side_port::system.l2.cpu_side_port       393601                       # Packet count per connected requestor and responder (Count)
system.tol2bus.pktCount_system.cpu3.icache.mem_side_port::system.l2.cpu_side_port        10899                       # Packet count per connected requestor and responder (Count)
system.tol2bus.pktCount_system.cpu3.dcache.mem_side_port::system.l2.cpu_side_port       393845                       # Packet count per connected requestor and responder (Count)
system.tol2bus.pktCount::total                1618981                       # Packet count per connected requestor and responder (Count)
system.tol2bus.pktSize_system.cpu0.icache.mem_side_port::system.l2.cpu_side_port       433344                       # Cumulative packet size per connected requestor and responder (Byte)
system.tol2bus.pktSize_system.cpu0.dcache.mem_side_port::system.l2.cpu_side_port     12591168                       # Cumulative packet size per connected requestor and responder (Byte)
system.tol2bus.pktSize_system.cpu1.icache.mem_side_port::system.l2.cpu_side_port       458752                       # Cumulative packet size per connected requestor and responder (Byte)
system.tol2bus.pktSize_system.cpu1.dcache.mem_side_port::system.l2.cpu_side_port     12634880                       # Cumulative packet size per connected requestor and responder (Byte)
system.tol2bus.pktSize_system.cpu2.icache.mem_side_port::system.l2.cpu_side_port       429760                       # Cumulative packet size per connected requestor and responder (Byte)
system.tol2bus.pktSize_system.cpu2.dcache.mem_side_port::system.l2.cpu_side_port     12561536                       # Cumulative packet size per connected requestor and responder (Byte)
system.tol2bus.pktSize_system.cpu3.icache.mem_side_port::system.l2.cpu_side_port       454016                       # Cumulative packet size per connected requestor and responder (Byte)
system.tol2bus.pktSize_system.cpu3.dcache.mem_side_port::system.l2.cpu_side_port     12607552                       # Cumulative packet size per connected requestor and responder (Byte)
system.tol2bus.pktSize::total                52171008                       # Cumulative packet size per connected requestor and responder (Byte)
system.tol2bus.snoops                          417801                       # Total snoops (Count)
system.tol2bus.snoopTraffic                  18027840                       # Total snoop traffic (Byte)
system.tol2bus.snoopFanout::samples            970149                       # Request fanout histogram (Count)
system.tol2bus.snoopFanout::mean             0.119105                       # Request fanout histogram (Count)
system.tol2bus.snoopFanout::stdev            0.323983                       # Request fanout histogram (Count)
system.tol2bus.snoopFanout::underflows              0      0.00%      0.00% # Request fanout histogram (Count)
system.tol2bus.snoopFanout::0                  854621     88.09%     88.09% # Request fanout histogram (Count)
system.tol2bus.snoopFanout::1                  115506     11.91%    100.00% # Request fanout histogram (Count)
system.tol2bus.snoopFanout::2                      22      0.00%    100.00% # Request fanout histogram (Count)
system.tol2bus.snoopFanout::3                       0      0.00%    100.00% # Request fanout histogram (Count)
system.tol2bus.snoopFanout::4                       0      0.00%    100.00% # Request fanout histogram (Count)
system.tol2bus.snoopFanout::5                       0      0.00%    100.00% # Request fanout histogram (Count)
system.tol2bus.snoopFanout::6                       0      0.00%    100.00% # Request fanout histogram (Count)
system.tol2bus.snoopFanout::7                       0      0.00%    100.00% # Request fanout histogram (Count)
system.tol2bus.snoopFanout::8                       0      0.00%    100.00% # Request fanout histogram (Count)
system.tol2bus.snoopFanout::9                       0      0.00%    100.00% # Request fanout histogram (Count)
system.tol2bus.snoopFanout::10                      0      0.00%    100.00% # Request fanout histogram (Count)
system.tol2bus.snoopFanout::11                      0      0.00%    100.00% # Request fanout histogram (Count)
system.tol2bus.snoopFanout::12                      0      0.00%    100.00% # Request fanout histogram (Count)
system.tol2bus.snoopFanout::13                      0      0.00%    100.00% # Request fanout histogram (Count)
system.tol2bus.snoopFanout::14                      0      0.00%    100.00% # Request fanout histogram (Count)
system.tol2bus.snoopFanout::15                      0      0.00%    100.00% # Request fanout histogram (Count)
system.tol2bus.snoopFanout::16                      0      0.00%    100.00% # Request fanout histogram (Count)
system.tol2bus.snoopFanout::overflows               0      0.00%    100.00% # Request fanout histogram (Count)
system.tol2bus.snoopFanout::min_value               0                       # Request fanout histogram (Count)
system.tol2bus.snoopFanout::max_value               2                       # Request fanout histogram (Count)
system.tol2bus.snoopFanout::total              970149                       # Request fanout histogram (Count)
system.tol2bus.power_state.pwrStateResidencyTicks::UNDEFINED   7101520000                       # Cumulative time (in ticks) in various power states (Tick)
system.tol2bus.reqLayer0.occupancy          830113988                       # Layer occupancy (ticks) (Tick)
system.tol2bus.reqLayer0.utilization              0.1                       # Layer utilization (Ratio)
system.tol2bus.respLayer0.occupancy           5470984                       # Layer occupancy (ticks) (Tick)
system.tol2bus.respLayer0.utilization             0.0                       # Layer utilization (Ratio)
system.tol2bus.respLayer1.occupancy         194141034                       # Layer occupancy (ticks) (Tick)
system.tol2bus.respLayer1.utilization             0.0                       # Layer utilization (Ratio)
system.tol2bus.respLayer12.occupancy          5711489                       # Layer occupancy (ticks) (Tick)
system.tol2bus.respLayer12.utilization            0.0                       # Layer utilization (Ratio)
system.tol2bus.respLayer13.occupancy        194258263                       # Layer occupancy (ticks) (Tick)
system.tol2bus.respLayer13.utilization            0.0                       # Layer utilization (Ratio)
system.tol2bus.respLayer4.occupancy           5768985                       # Layer occupancy (ticks) (Tick)
system.tol2bus.respLayer4.utilization             0.0                       # Layer utilization (Ratio)
system.tol2bus.respLayer5.occupancy         195107208                       # Layer occupancy (ticks) (Tick)
system.tol2bus.respLayer5.utilization             0.0                       # Layer utilization (Ratio)
system.tol2bus.respLayer8.occupancy           5432479                       # Layer occupancy (ticks) (Tick)
system.tol2bus.respLayer8.utilization             0.0                       # Layer utilization (Ratio)
system.tol2bus.respLayer9.occupancy         194229049                       # Layer occupancy (ticks) (Tick)
system.tol2bus.respLayer9.utilization             0.0                       # Layer utilization (Ratio)
system.tol2bus.snoop_filter.totRequests       1066660                       # Total number of requests made to the snoop filter. (Count)
system.tol2bus.snoop_filter.hitSingleRequests       548249                       # Number of requests hitting in the snoop filter with a single holder of the requested data. (Count)
system.tol2bus.snoop_filter.hitMultiRequests           33                       # Number of requests hitting in the snoop filter with multiple (>1) holders of the requested data. (Count)
system.tol2bus.snoop_filter.totSnoops          115492                       # Total number of snoops made to the snoop filter. (Count)
system.tol2bus.snoop_filter.hitSingleSnoops       115470                       # Number of snoops hitting in the snoop filter with a single holder of the requested data. (Count)
system.tol2bus.snoop_filter.hitMultiSnoops           22                       # Number of snoops hitting in the snoop filter with multiple (>1) holders of the requested data. (Count)
system.tol3bus.transDist::ReadResp             272641                       # Transaction distribution (Count)
system.tol3bus.transDist::WritebackDirty       341053                       # Transaction distribution (Count)
system.tol3bus.transDist::CleanEvict           169064                       # Transaction distribution (Count)
system.tol3bus.transDist::UpgradeReq               80                       # Transaction distribution (Count)
system.tol3bus.transDist::UpgradeResp              80                       # Transaction distribution (Count)
system.tol3bus.transDist::ReadExReq             98827                       # Transaction distribution (Count)
system.tol3bus.transDist::ReadExResp            98827                       # Transaction distribution (Count)
system.tol3bus.transDist::ReadSharedReq        272642                       # Transaction distribution (Count)
system.tol3bus.pktCount_system.l2.mem_side_port::system.l3.cpu_side_port      1135061                       # Packet count per connected requestor and responder (Count)
system.tol3bus.pktSize_system.l2.mem_side_port::system.l3.cpu_side_port     41774720                       # Cumulative packet size per connected requestor and responder (Byte)
system.tol3bus.snoops                          118153                       # Total snoops (Count)
system.tol3bus.snoopTraffic                   3826624                       # Total snoop traffic (Byte)
system.tol3bus.snoopFanout::samples            489702                       # Request fanout histogram (Count)
system.tol3bus.snoopFanout::mean             0.011188                       # Request fanout histogram (Count)
system.tol3bus.snoopFanout::stdev            0.105182                       # Request fanout histogram (Count)
system.tol3bus.snoopFanout::underflows              0      0.00%      0.00% # Request fanout histogram (Count)
system.tol3bus.snoopFanout::0                  484223     98.88%     98.88% # Request fanout histogram (Count)
system.tol3bus.snoopFanout::1                    5479      1.12%    100.00% # Request fanout histogram (Count)
system.tol3bus.snoopFanout::overflows               0      0.00%    100.00% # Request fanout histogram (Count)
system.tol3bus.snoopFanout::min_value               0                       # Request fanout histogram (Count)
system.tol3bus.snoopFanout::max_value               1                       # Request fanout histogram (Count)
system.tol3bus.snoopFanout::total              489702                       # Request fanout histogram (Count)
system.tol3bus.power_state.pwrStateResidencyTicks::UNDEFINED   7101520000                       # Cumulative time (in ticks) in various power states (Tick)
system.tol3bus.reqLayer0.occupancy          663018510                       # Layer occupancy (ticks) (Tick)
system.tol3bus.reqLayer0.utilization              0.1                       # Layer utilization (Ratio)
system.tol3bus.respLayer0.occupancy         557242000                       # Layer occupancy (ticks) (Tick)
system.tol3bus.respLayer0.utilization             0.1                       # Layer utilization (Ratio)
system.tol3bus.snoop_filter.totRequests        763513                       # Total number of requests made to the snoop filter. (Count)
system.tol3bus.snoop_filter.hitSingleRequests       392063                       # Number of requests hitting in the snoop filter with a single holder of the requested data. (Count)
system.tol3bus.snoop_filter.hitMultiRequests            0                       # Number of requests hitting in the snoop filter with multiple (>1) holders of the requested data. (Count)
system.tol3bus.snoop_filter.totSnoops            5479                       # Total number of snoops made to the snoop filter. (Count)
system.tol3bus.snoop_filter.hitSingleSnoops         5479                       # Number of snoops hitting in the snoop filter with a single holder of the requested data. (Count)
system.tol3bus.snoop_filter.hitMultiSnoops            0                       # Number of snoops hitting in the snoop filter with multiple (>1) holders of the requested data. (Count)
system.voltage_domain.voltage                       1                       # Voltage in Volts (Volt)
system.workload.inst.arm                            0                       # number of arm instructions executed (Count)
system.workload.inst.quiesce                        0                       # number of quiesce instructions executed (Count)

---------- End Simulation Statistics   ----------
