
---------- Begin Simulation Statistics ----------
simSeconds                                   0.004969                       # Number of seconds simulated (Second)
simTicks                                   4968558500                       # Number of ticks simulated (Tick)
finalTick                                  4968558500                       # Number of ticks from beginning of simulation (restored from checkpoints and never reset) (Tick)
simFreq                                  1000000000000                       # The number of ticks per simulated second ((Tick/Second))
hostSeconds                                     95.52                       # Real time elapsed on the host (Second)
hostTickRate                                 52015998                       # The number of ticks simulated per host second (ticks/s) ((Tick/Second))
hostMemory                                    8590456                       # Number of bytes of host memory used (Byte)
simInsts                                     12961819                       # Number of instructions simulated (Count)
simOps                                       24681799                       # Number of ops (including micro ops) simulated (Count)
hostInstRate                                   135698                       # Simulator instruction rate (inst/s) ((Count/Second))
hostOpRate                                     258394                       # Simulator op (including micro ops) rate (op/s) ((Count/Second))
system.clk_domain.clock                          1000                       # Clock period in ticks (Tick)
system.cpu.numCycles                          9937118                       # Number of cpu cycles simulated (Cycle)
system.cpu.numWorkItemsStarted                      0                       # Number of work items this cpu started (Count)
system.cpu.numWorkItemsCompleted                    0                       # Number of work items this cpu completed (Count)
system.cpu.instsAdded                        28784463                       # Number of instructions added to the IQ (excludes non-spec) (Count)
system.cpu.nonSpecInstsAdded                    63294                       # Number of non-speculative instructions added to the IQ (Count)
system.cpu.instsIssued                       27339847                       # Number of instructions issued (Count)
system.cpu.squashedInstsIssued                  44620                       # Number of squashed instructions issued (Count)
system.cpu.squashedInstsExamined              4165943                       # Number of squashed instructions iterated over during squash; mainly for profiling (Count)
system.cpu.squashedOperandsExamined           6197937                       # Number of squashed operands that are examined and possibly removed from graph (Count)
system.cpu.squashedNonSpecRemoved               34439                       # Number of squashed non-spec instructions that were removed (Count)
system.cpu.numIssuedDist::samples             9777401                       # Number of insts issued each cycle (Count)
system.cpu.numIssuedDist::mean               2.796228                       # Number of insts issued each cycle (Count)
system.cpu.numIssuedDist::stdev              2.511192                       # Number of insts issued each cycle (Count)
system.cpu.numIssuedDist::underflows                0      0.00%      0.00% # Number of insts issued each cycle (Count)
system.cpu.numIssuedDist::0                   3050683     31.20%     31.20% # Number of insts issued each cycle (Count)
system.cpu.numIssuedDist::1                    891165      9.11%     40.32% # Number of insts issued each cycle (Count)
system.cpu.numIssuedDist::2                    858173      8.78%     49.09% # Number of insts issued each cycle (Count)
system.cpu.numIssuedDist::3                   1104729     11.30%     60.39% # Number of insts issued each cycle (Count)
system.cpu.numIssuedDist::4                    918248      9.39%     69.78% # Number of insts issued each cycle (Count)
system.cpu.numIssuedDist::5                   1052045     10.76%     80.54% # Number of insts issued each cycle (Count)
system.cpu.numIssuedDist::6                   1052059     10.76%     91.30% # Number of insts issued each cycle (Count)
system.cpu.numIssuedDist::7                    629814      6.44%     97.74% # Number of insts issued each cycle (Count)
system.cpu.numIssuedDist::8                    220485      2.26%    100.00% # Number of insts issued each cycle (Count)
system.cpu.numIssuedDist::overflows                 0      0.00%    100.00% # Number of insts issued each cycle (Count)
system.cpu.numIssuedDist::min_value                 0                       # Number of insts issued each cycle (Count)
system.cpu.numIssuedDist::max_value                 8                       # Number of insts issued each cycle (Count)
system.cpu.numIssuedDist::total               9777401                       # Number of insts issued each cycle (Count)
system.cpu.statFuBusy::No_OpClass                   0      0.00%      0.00% # attempts to use FU when none available (Count)
system.cpu.statFuBusy::IntAlu                  840898     96.26%     96.26% # attempts to use FU when none available (Count)
system.cpu.statFuBusy::IntMult                      0      0.00%     96.26% # attempts to use FU when none available (Count)
system.cpu.statFuBusy::IntDiv                       0      0.00%     96.26% # attempts to use FU when none available (Count)
system.cpu.statFuBusy::FloatAdd                     0      0.00%     96.26% # attempts to use FU when none available (Count)
system.cpu.statFuBusy::FloatCmp                     0      0.00%     96.26% # attempts to use FU when none available (Count)
system.cpu.statFuBusy::FloatCvt                     0      0.00%     96.26% # attempts to use FU when none available (Count)
system.cpu.statFuBusy::FloatMult                    0      0.00%     96.26% # attempts to use FU when none available (Count)
system.cpu.statFuBusy::FloatMultAcc                 0      0.00%     96.26% # attempts to use FU when none available (Count)
system.cpu.statFuBusy::FloatDiv                     0      0.00%     96.26% # attempts to use FU when none available (Count)
system.cpu.statFuBusy::FloatMisc                    0      0.00%     96.26% # attempts to use FU when none available (Count)
system.cpu.statFuBusy::FloatSqrt                    0      0.00%     96.26% # attempts to use FU when none available (Count)
system.cpu.statFuBusy::SimdAdd                      2      0.00%     96.26% # attempts to use FU when none available (Count)
system.cpu.statFuBusy::SimdAddAcc                   0      0.00%     96.26% # attempts to use FU when none available (Count)
system.cpu.statFuBusy::SimdAlu                    129      0.01%     96.28% # attempts to use FU when none available (Count)
system.cpu.statFuBusy::SimdCmp                      0      0.00%     96.28% # attempts to use FU when none available (Count)
system.cpu.statFuBusy::SimdCvt                    971      0.11%     96.39% # attempts to use FU when none available (Count)
system.cpu.statFuBusy::SimdMisc                    14      0.00%     96.39% # attempts to use FU when none available (Count)
system.cpu.statFuBusy::SimdMult                     0      0.00%     96.39% # attempts to use FU when none available (Count)
system.cpu.statFuBusy::SimdMultAcc                  0      0.00%     96.39% # attempts to use FU when none available (Count)
system.cpu.statFuBusy::SimdShift                   32      0.00%     96.39% # attempts to use FU when none available (Count)
system.cpu.statFuBusy::SimdShiftAcc                 0      0.00%     96.39% # attempts to use FU when none available (Count)
system.cpu.statFuBusy::SimdDiv                      0      0.00%     96.39% # attempts to use FU when none available (Count)
system.cpu.statFuBusy::SimdSqrt                     0      0.00%     96.39% # attempts to use FU when none available (Count)
system.cpu.statFuBusy::SimdFloatAdd                 0      0.00%     96.39% # attempts to use FU when none available (Count)
system.cpu.statFuBusy::SimdFloatAlu                 0      0.00%     96.39% # attempts to use FU when none available (Count)
system.cpu.statFuBusy::SimdFloatCmp                 0      0.00%     96.39% # attempts to use FU when none available (Count)
system.cpu.statFuBusy::SimdFloatCvt                 0      0.00%     96.39% # attempts to use FU when none available (Count)
system.cpu.statFuBusy::SimdFloatDiv                 0      0.00%     96.39% # attempts to use FU when none available (Count)
system.cpu.statFuBusy::SimdFloatMisc                0      0.00%     96.39% # attempts to use FU when none available (Count)
system.cpu.statFuBusy::SimdFloatMult                0      0.00%     96.39% # attempts to use FU when none available (Count)
system.cpu.statFuBusy::SimdFloatMultAcc             0      0.00%     96.39% # attempts to use FU when none available (Count)
system.cpu.statFuBusy::SimdFloatSqrt                0      0.00%     96.39% # attempts to use FU when none available (Count)
system.cpu.statFuBusy::SimdReduceAdd                0      0.00%     96.39% # attempts to use FU when none available (Count)
system.cpu.statFuBusy::SimdReduceAlu                0      0.00%     96.39% # attempts to use FU when none available (Count)
system.cpu.statFuBusy::SimdReduceCmp                0      0.00%     96.39% # attempts to use FU when none available (Count)
system.cpu.statFuBusy::SimdFloatReduceAdd            0      0.00%     96.39% # attempts to use FU when none available (Count)
system.cpu.statFuBusy::SimdFloatReduceCmp            0      0.00%     96.39% # attempts to use FU when none available (Count)
system.cpu.statFuBusy::SimdAes                      0      0.00%     96.39% # attempts to use FU when none available (Count)
system.cpu.statFuBusy::SimdAesMix                   0      0.00%     96.39% # attempts to use FU when none available (Count)
system.cpu.statFuBusy::SimdSha1Hash                 0      0.00%     96.39% # attempts to use FU when none available (Count)
system.cpu.statFuBusy::SimdSha1Hash2                0      0.00%     96.39% # attempts to use FU when none available (Count)
system.cpu.statFuBusy::SimdSha256Hash               0      0.00%     96.39% # attempts to use FU when none available (Count)
system.cpu.statFuBusy::SimdSha256Hash2              0      0.00%     96.39% # attempts to use FU when none available (Count)
system.cpu.statFuBusy::SimdShaSigma2                0      0.00%     96.39% # attempts to use FU when none available (Count)
system.cpu.statFuBusy::SimdShaSigma3                0      0.00%     96.39% # attempts to use FU when none available (Count)
system.cpu.statFuBusy::SimdPredAlu                  0      0.00%     96.39% # attempts to use FU when none available (Count)
system.cpu.statFuBusy::MemRead                  21384      2.45%     98.84% # attempts to use FU when none available (Count)
system.cpu.statFuBusy::MemWrite                  9252      1.06%     99.90% # attempts to use FU when none available (Count)
system.cpu.statFuBusy::FloatMemRead               606      0.07%     99.97% # attempts to use FU when none available (Count)
system.cpu.statFuBusy::FloatMemWrite              256      0.03%    100.00% # attempts to use FU when none available (Count)
system.cpu.statFuBusy::IprAccess                    0      0.00%    100.00% # attempts to use FU when none available (Count)
system.cpu.statFuBusy::InstPrefetch                 0      0.00%    100.00% # attempts to use FU when none available (Count)
system.cpu.statIssuedInstType_0::No_OpClass       129058      0.47%      0.47% # Number of instructions issued per FU type, per thread (Count)
system.cpu.statIssuedInstType_0::IntAlu      23156681     84.70%     85.17% # Number of instructions issued per FU type, per thread (Count)
system.cpu.statIssuedInstType_0::IntMult       121608      0.44%     85.62% # Number of instructions issued per FU type, per thread (Count)
system.cpu.statIssuedInstType_0::IntDiv         43352      0.16%     85.77% # Number of instructions issued per FU type, per thread (Count)
system.cpu.statIssuedInstType_0::FloatAdd         8392      0.03%     85.81% # Number of instructions issued per FU type, per thread (Count)
system.cpu.statIssuedInstType_0::FloatCmp            0      0.00%     85.81% # Number of instructions issued per FU type, per thread (Count)
system.cpu.statIssuedInstType_0::FloatCvt         1816      0.01%     85.81% # Number of instructions issued per FU type, per thread (Count)
system.cpu.statIssuedInstType_0::FloatMult            0      0.00%     85.81% # Number of instructions issued per FU type, per thread (Count)
system.cpu.statIssuedInstType_0::FloatMultAcc            0      0.00%     85.81% # Number of instructions issued per FU type, per thread (Count)
system.cpu.statIssuedInstType_0::FloatDiv            0      0.00%     85.81% # Number of instructions issued per FU type, per thread (Count)
system.cpu.statIssuedInstType_0::FloatMisc            0      0.00%     85.81% # Number of instructions issued per FU type, per thread (Count)
system.cpu.statIssuedInstType_0::FloatSqrt            0      0.00%     85.81% # Number of instructions issued per FU type, per thread (Count)
system.cpu.statIssuedInstType_0::SimdAdd         7914      0.03%     85.84% # Number of instructions issued per FU type, per thread (Count)
system.cpu.statIssuedInstType_0::SimdAddAcc            0      0.00%     85.84% # Number of instructions issued per FU type, per thread (Count)
system.cpu.statIssuedInstType_0::SimdAlu        16057      0.06%     85.90% # Number of instructions issued per FU type, per thread (Count)
system.cpu.statIssuedInstType_0::SimdCmp            8      0.00%     85.90% # Number of instructions issued per FU type, per thread (Count)
system.cpu.statIssuedInstType_0::SimdCvt        17161      0.06%     85.96% # Number of instructions issued per FU type, per thread (Count)
system.cpu.statIssuedInstType_0::SimdMisc        14976      0.05%     86.02% # Number of instructions issued per FU type, per thread (Count)
system.cpu.statIssuedInstType_0::SimdMult            0      0.00%     86.02% # Number of instructions issued per FU type, per thread (Count)
system.cpu.statIssuedInstType_0::SimdMultAcc            0      0.00%     86.02% # Number of instructions issued per FU type, per thread (Count)
system.cpu.statIssuedInstType_0::SimdShift         2383      0.01%     86.03% # Number of instructions issued per FU type, per thread (Count)
system.cpu.statIssuedInstType_0::SimdShiftAcc            0      0.00%     86.03% # Number of instructions issued per FU type, per thread (Count)
system.cpu.statIssuedInstType_0::SimdDiv            0      0.00%     86.03% # Number of instructions issued per FU type, per thread (Count)
system.cpu.statIssuedInstType_0::SimdSqrt            0      0.00%     86.03% # Number of instructions issued per FU type, per thread (Count)
system.cpu.statIssuedInstType_0::SimdFloatAdd            4      0.00%     86.03% # Number of instructions issued per FU type, per thread (Count)
system.cpu.statIssuedInstType_0::SimdFloatAlu            0      0.00%     86.03% # Number of instructions issued per FU type, per thread (Count)
system.cpu.statIssuedInstType_0::SimdFloatCmp            0      0.00%     86.03% # Number of instructions issued per FU type, per thread (Count)
system.cpu.statIssuedInstType_0::SimdFloatCvt            8      0.00%     86.03% # Number of instructions issued per FU type, per thread (Count)
system.cpu.statIssuedInstType_0::SimdFloatDiv            2      0.00%     86.03% # Number of instructions issued per FU type, per thread (Count)
system.cpu.statIssuedInstType_0::SimdFloatMisc            0      0.00%     86.03% # Number of instructions issued per FU type, per thread (Count)
system.cpu.statIssuedInstType_0::SimdFloatMult            0      0.00%     86.03% # Number of instructions issued per FU type, per thread (Count)
system.cpu.statIssuedInstType_0::SimdFloatMultAcc            0      0.00%     86.03% # Number of instructions issued per FU type, per thread (Count)
system.cpu.statIssuedInstType_0::SimdFloatSqrt            0      0.00%     86.03% # Number of instructions issued per FU type, per thread (Count)
system.cpu.statIssuedInstType_0::SimdReduceAdd            0      0.00%     86.03% # Number of instructions issued per FU type, per thread (Count)
system.cpu.statIssuedInstType_0::SimdReduceAlu            0      0.00%     86.03% # Number of instructions issued per FU type, per thread (Count)
system.cpu.statIssuedInstType_0::SimdReduceCmp            0      0.00%     86.03% # Number of instructions issued per FU type, per thread (Count)
system.cpu.statIssuedInstType_0::SimdFloatReduceAdd            0      0.00%     86.03% # Number of instructions issued per FU type, per thread (Count)
system.cpu.statIssuedInstType_0::SimdFloatReduceCmp            0      0.00%     86.03% # Number of instructions issued per FU type, per thread (Count)
system.cpu.statIssuedInstType_0::SimdAes            0      0.00%     86.03% # Number of instructions issued per FU type, per thread (Count)
system.cpu.statIssuedInstType_0::SimdAesMix            0      0.00%     86.03% # Number of instructions issued per FU type, per thread (Count)
system.cpu.statIssuedInstType_0::SimdSha1Hash            0      0.00%     86.03% # Number of instructions issued per FU type, per thread (Count)
system.cpu.statIssuedInstType_0::SimdSha1Hash2            0      0.00%     86.03% # Number of instructions issued per FU type, per thread (Count)
system.cpu.statIssuedInstType_0::SimdSha256Hash            0      0.00%     86.03% # Number of instructions issued per FU type, per thread (Count)
system.cpu.statIssuedInstType_0::SimdSha256Hash2            0      0.00%     86.03% # Number of instructions issued per FU type, per thread (Count)
system.cpu.statIssuedInstType_0::SimdShaSigma2            0      0.00%     86.03% # Number of instructions issued per FU type, per thread (Count)
system.cpu.statIssuedInstType_0::SimdShaSigma3            0      0.00%     86.03% # Number of instructions issued per FU type, per thread (Count)
system.cpu.statIssuedInstType_0::SimdPredAlu            0      0.00%     86.03% # Number of instructions issued per FU type, per thread (Count)
system.cpu.statIssuedInstType_0::MemRead      2691142      9.84%     95.87% # Number of instructions issued per FU type, per thread (Count)
system.cpu.statIssuedInstType_0::MemWrite      1087893      3.98%     99.85% # Number of instructions issued per FU type, per thread (Count)
system.cpu.statIssuedInstType_0::FloatMemRead        24630      0.09%     99.94% # Number of instructions issued per FU type, per thread (Count)
system.cpu.statIssuedInstType_0::FloatMemWrite        16762      0.06%    100.00% # Number of instructions issued per FU type, per thread (Count)
system.cpu.statIssuedInstType_0::IprAccess            0      0.00%    100.00% # Number of instructions issued per FU type, per thread (Count)
system.cpu.statIssuedInstType_0::InstPrefetch            0      0.00%    100.00% # Number of instructions issued per FU type, per thread (Count)
system.cpu.statIssuedInstType_0::total       27339847                       # Number of instructions issued per FU type, per thread (Count)
system.cpu.issueRate                         2.751285                       # Inst issue rate ((Count/Cycle))
system.cpu.fuBusy                              873544                       # FU busy when requested (Count)
system.cpu.fuBusyRate                        0.031951                       # FU busy rate (busy events/executed inst) ((Count/Count))
system.cpu.intInstQueueReads                 65145016                       # Number of integer instruction queue reads (Count)
system.cpu.intInstQueueWrites                32856271                       # Number of integer instruction queue writes (Count)
system.cpu.intInstQueueWakeupAccesses        26999193                       # Number of integer instruction queue wakeup accesses (Count)
system.cpu.fpInstQueueReads                    230243                       # Number of floating instruction queue reads (Count)
system.cpu.fpInstQueueWrites                   157649                       # Number of floating instruction queue writes (Count)
system.cpu.fpInstQueueWakeupAccesses           110534                       # Number of floating instruction queue wakeup accesses (Count)
system.cpu.vecInstQueueReads                        0                       # Number of vector instruction queue reads (Count)
system.cpu.vecInstQueueWrites                       0                       # Number of vector instruction queue writes (Count)
system.cpu.vecInstQueueWakeupAccesses               0                       # Number of vector instruction queue wakeup accesses (Count)
system.cpu.intAluAccesses                    27968300                       # Number of integer alu accesses (Count)
system.cpu.fpAluAccesses                       116033                       # Number of floating point alu accesses (Count)
system.cpu.vecAluAccesses                           0                       # Number of vector alu accesses (Count)
system.cpu.numInsts                          27196654                       # Number of executed instructions (Count)
system.cpu.numLoadInsts                       2684297                       # Number of load instructions executed (Count)
system.cpu.numSquashedInsts                    143193                       # Number of squashed instructions skipped in execute (Count)
system.cpu.numSwp                                   0                       # Number of swp insts executed (Count)
system.cpu.numNop                                   0                       # Number of nop insts executed (Count)
system.cpu.numRefs                            3779205                       # Number of memory reference insts executed (Count)
system.cpu.numBranches                        3361317                       # Number of branches executed (Count)
system.cpu.numStoreInsts                      1094908                       # Number of stores executed (Count)
system.cpu.numRate                           2.736875                       # Inst execution rate ((Count/Cycle))
system.cpu.timesIdled                            2228                       # Number of times that the entire CPU went into an idle state and unscheduled itself (Count)
system.cpu.idleCycles                          159717                       # Total number of cycles that the CPU has spent unscheduled due to idling (Cycle)
system.cpu.committedInsts                    12961819                       # Number of Instructions Simulated (Count)
system.cpu.committedOps                      24681799                       # Number of Ops (including micro ops) Simulated (Count)
system.cpu.cpi                               0.766645                       # CPI: Cycles Per Instruction ((Cycle/Count))
system.cpu.totalCpi                          0.766645                       # CPI: Total CPI of All Threads ((Cycle/Count))
system.cpu.ipc                               1.304384                       # IPC: Instructions Per Cycle ((Count/Cycle))
system.cpu.totalIpc                          1.304384                       # IPC: Total IPC of All Threads ((Count/Cycle))
system.cpu.intRegfileReads                   38998513                       # Number of integer regfile reads (Count)
system.cpu.intRegfileWrites                  22645669                       # Number of integer regfile writes (Count)
system.cpu.fpRegfileReads                      152370                       # Number of floating regfile reads (Count)
system.cpu.fpRegfileWrites                      84436                       # Number of floating regfile writes (Count)
system.cpu.ccRegfileReads                    18952935                       # number of cc regfile reads (Count)
system.cpu.ccRegfileWrites                   11458948                       # number of cc regfile writes (Count)
system.cpu.miscRegfileReads                  10789158                       # number of misc regfile reads (Count)
system.cpu.miscRegfileWrites                      990                       # number of misc regfile writes (Count)
system.cpu.MemDepUnit__0.insertedLoads        2910529                       # Number of loads inserted to the mem dependence unit. (Count)
system.cpu.MemDepUnit__0.insertedStores       1213158                       # Number of stores inserted to the mem dependence unit. (Count)
system.cpu.MemDepUnit__0.conflictingLoads       210289                       # Number of conflicting loads. (Count)
system.cpu.MemDepUnit__0.conflictingStores       105011                       # Number of conflicting stores. (Count)
system.cpu.MemDepUnit__1.insertedLoads              0                       # Number of loads inserted to the mem dependence unit. (Count)
system.cpu.MemDepUnit__1.insertedStores             0                       # Number of stores inserted to the mem dependence unit. (Count)
system.cpu.MemDepUnit__1.conflictingLoads            0                       # Number of conflicting loads. (Count)
system.cpu.MemDepUnit__1.conflictingStores            0                       # Number of conflicting stores. (Count)
system.cpu.MemDepUnit__2.insertedLoads              0                       # Number of loads inserted to the mem dependence unit. (Count)
system.cpu.MemDepUnit__2.insertedStores             0                       # Number of stores inserted to the mem dependence unit. (Count)
system.cpu.MemDepUnit__2.conflictingLoads            0                       # Number of conflicting loads. (Count)
system.cpu.MemDepUnit__2.conflictingStores            0                       # Number of conflicting stores. (Count)
system.cpu.MemDepUnit__3.insertedLoads              0                       # Number of loads inserted to the mem dependence unit. (Count)
system.cpu.MemDepUnit__3.insertedStores             0                       # Number of stores inserted to the mem dependence unit. (Count)
system.cpu.MemDepUnit__3.conflictingLoads            0                       # Number of conflicting loads. (Count)
system.cpu.MemDepUnit__3.conflictingStores            0                       # Number of conflicting stores. (Count)
system.cpu.branchPred.lookups                 3875487                       # Number of BP lookups (Count)
system.cpu.branchPred.condPredicted           3591979                       # Number of conditional branches predicted (Count)
system.cpu.branchPred.condIncorrect             81642                       # Number of conditional branches incorrect (Count)
system.cpu.branchPred.BTBLookups              2170517                       # Number of BTB lookups (Count)
system.cpu.branchPred.BTBHits                 2165814                       # Number of BTB hits (Count)
system.cpu.branchPred.BTBHitRatio            0.997833                       # BTB Hit Ratio (Ratio)
system.cpu.branchPred.RASUsed                   48431                       # Number of times the RAS was used to get a target. (Count)
system.cpu.branchPred.RASIncorrect                 17                       # Number of incorrect RAS predictions. (Count)
system.cpu.branchPred.indirectLookups           46915                       # Number of indirect predictor lookups. (Count)
system.cpu.branchPred.indirectHits              38019                       # Number of indirect target hits. (Count)
system.cpu.branchPred.indirectMisses             8896                       # Number of indirect misses. (Count)
system.cpu.branchPred.indirectMispredicted         1622                       # Number of mispredicted indirect branches. (Count)
system.cpu.commit.commitSquashedInsts         4160360                       # The number of squashed insts skipped by commit (Count)
system.cpu.commit.commitNonSpecStalls           28854                       # The number of times commit has been forced to stall to communicate backwards (Count)
system.cpu.commit.branchMispredicts             80691                       # The number of times a branch was mispredicted (Count)
system.cpu.commit.numCommittedDist::samples      9202267                       # Number of insts commited each cycle (Count)
system.cpu.commit.numCommittedDist::mean     2.682143                       # Number of insts commited each cycle (Count)
system.cpu.commit.numCommittedDist::stdev     3.019408                       # Number of insts commited each cycle (Count)
system.cpu.commit.numCommittedDist::underflows            0      0.00%      0.00% # Number of insts commited each cycle (Count)
system.cpu.commit.numCommittedDist::0         3604295     39.17%     39.17% # Number of insts commited each cycle (Count)
system.cpu.commit.numCommittedDist::1         1109285     12.05%     51.22% # Number of insts commited each cycle (Count)
system.cpu.commit.numCommittedDist::2          443689      4.82%     56.04% # Number of insts commited each cycle (Count)
system.cpu.commit.numCommittedDist::3         1390764     15.11%     71.16% # Number of insts commited each cycle (Count)
system.cpu.commit.numCommittedDist::4          263587      2.86%     74.02% # Number of insts commited each cycle (Count)
system.cpu.commit.numCommittedDist::5          332006      3.61%     77.63% # Number of insts commited each cycle (Count)
system.cpu.commit.numCommittedDist::6          242008      2.63%     80.26% # Number of insts commited each cycle (Count)
system.cpu.commit.numCommittedDist::7          186646      2.03%     82.29% # Number of insts commited each cycle (Count)
system.cpu.commit.numCommittedDist::8         1629987     17.71%    100.00% # Number of insts commited each cycle (Count)
system.cpu.commit.numCommittedDist::overflows            0      0.00%    100.00% # Number of insts commited each cycle (Count)
system.cpu.commit.numCommittedDist::min_value            0                       # Number of insts commited each cycle (Count)
system.cpu.commit.numCommittedDist::max_value            8                       # Number of insts commited each cycle (Count)
system.cpu.commit.numCommittedDist::total      9202267                       # Number of insts commited each cycle (Count)
system.cpu.commit.instsCommitted             12961819                       # Number of instructions committed (Count)
system.cpu.commit.opsCommitted               24681799                       # Number of ops (including micro ops) committed (Count)
system.cpu.commit.memRefs                     3363186                       # Number of memory references committed (Count)
system.cpu.commit.loads                       2359139                       # Number of loads committed (Count)
system.cpu.commit.amos                              0                       # Number of atomic instructions committed (Count)
system.cpu.commit.membars                       18576                       # Number of memory barriers committed (Count)
system.cpu.commit.branches                    3180786                       # Number of branches committed (Count)
system.cpu.commit.vectorInstructions                0                       # Number of committed Vector instructions. (Count)
system.cpu.commit.floating                      94235                       # Number of committed floating point instructions. (Count)
system.cpu.commit.integer                    24483019                       # Number of committed integer instructions. (Count)
system.cpu.commit.functionCalls                 44799                       # Number of function calls committed. (Count)
system.cpu.commit.committedInstType_0::No_OpClass       113729      0.46%      0.46% # Class of committed instruction (Count)
system.cpu.commit.committedInstType_0::IntAlu     20986651     85.03%     85.49% # Class of committed instruction (Count)
system.cpu.commit.committedInstType_0::IntMult       120804      0.49%     85.98% # Class of committed instruction (Count)
system.cpu.commit.committedInstType_0::IntDiv        40397      0.16%     86.14% # Class of committed instruction (Count)
system.cpu.commit.committedInstType_0::FloatAdd         6140      0.02%     86.17% # Class of committed instruction (Count)
system.cpu.commit.committedInstType_0::FloatCmp            0      0.00%     86.17% # Class of committed instruction (Count)
system.cpu.commit.committedInstType_0::FloatCvt         1760      0.01%     86.17% # Class of committed instruction (Count)
system.cpu.commit.committedInstType_0::FloatMult            0      0.00%     86.17% # Class of committed instruction (Count)
system.cpu.commit.committedInstType_0::FloatMultAcc            0      0.00%     86.17% # Class of committed instruction (Count)
system.cpu.commit.committedInstType_0::FloatDiv            0      0.00%     86.17% # Class of committed instruction (Count)
system.cpu.commit.committedInstType_0::FloatMisc            0      0.00%     86.17% # Class of committed instruction (Count)
system.cpu.commit.committedInstType_0::FloatSqrt            0      0.00%     86.17% # Class of committed instruction (Count)
system.cpu.commit.committedInstType_0::SimdAdd         7208      0.03%     86.20% # Class of committed instruction (Count)
system.cpu.commit.committedInstType_0::SimdAddAcc            0      0.00%     86.20% # Class of committed instruction (Count)
system.cpu.commit.committedInstType_0::SimdAlu        13141      0.05%     86.26% # Class of committed instruction (Count)
system.cpu.commit.committedInstType_0::SimdCmp            6      0.00%     86.26% # Class of committed instruction (Count)
system.cpu.commit.committedInstType_0::SimdCvt        14800      0.06%     86.32% # Class of committed instruction (Count)
system.cpu.commit.committedInstType_0::SimdMisc        12913      0.05%     86.37% # Class of committed instruction (Count)
system.cpu.commit.committedInstType_0::SimdMult            0      0.00%     86.37% # Class of committed instruction (Count)
system.cpu.commit.committedInstType_0::SimdMultAcc            0      0.00%     86.37% # Class of committed instruction (Count)
system.cpu.commit.committedInstType_0::SimdShift         1052      0.00%     86.37% # Class of committed instruction (Count)
system.cpu.commit.committedInstType_0::SimdShiftAcc            0      0.00%     86.37% # Class of committed instruction (Count)
system.cpu.commit.committedInstType_0::SimdDiv            0      0.00%     86.37% # Class of committed instruction (Count)
system.cpu.commit.committedInstType_0::SimdSqrt            0      0.00%     86.37% # Class of committed instruction (Count)
system.cpu.commit.committedInstType_0::SimdFloatAdd            4      0.00%     86.37% # Class of committed instruction (Count)
system.cpu.commit.committedInstType_0::SimdFloatAlu            0      0.00%     86.37% # Class of committed instruction (Count)
system.cpu.commit.committedInstType_0::SimdFloatCmp            0      0.00%     86.37% # Class of committed instruction (Count)
system.cpu.commit.committedInstType_0::SimdFloatCvt            6      0.00%     86.37% # Class of committed instruction (Count)
system.cpu.commit.committedInstType_0::SimdFloatDiv            2      0.00%     86.37% # Class of committed instruction (Count)
system.cpu.commit.committedInstType_0::SimdFloatMisc            0      0.00%     86.37% # Class of committed instruction (Count)
system.cpu.commit.committedInstType_0::SimdFloatMult            0      0.00%     86.37% # Class of committed instruction (Count)
system.cpu.commit.committedInstType_0::SimdFloatMultAcc            0      0.00%     86.37% # Class of committed instruction (Count)
system.cpu.commit.committedInstType_0::SimdFloatSqrt            0      0.00%     86.37% # Class of committed instruction (Count)
system.cpu.commit.committedInstType_0::SimdReduceAdd            0      0.00%     86.37% # Class of committed instruction (Count)
system.cpu.commit.committedInstType_0::SimdReduceAlu            0      0.00%     86.37% # Class of committed instruction (Count)
system.cpu.commit.committedInstType_0::SimdReduceCmp            0      0.00%     86.37% # Class of committed instruction (Count)
system.cpu.commit.committedInstType_0::SimdFloatReduceAdd            0      0.00%     86.37% # Class of committed instruction (Count)
system.cpu.commit.committedInstType_0::SimdFloatReduceCmp            0      0.00%     86.37% # Class of committed instruction (Count)
system.cpu.commit.committedInstType_0::SimdAes            0      0.00%     86.37% # Class of committed instruction (Count)
system.cpu.commit.committedInstType_0::SimdAesMix            0      0.00%     86.37% # Class of committed instruction (Count)
system.cpu.commit.committedInstType_0::SimdSha1Hash            0      0.00%     86.37% # Class of committed instruction (Count)
system.cpu.commit.committedInstType_0::SimdSha1Hash2            0      0.00%     86.37% # Class of committed instruction (Count)
system.cpu.commit.committedInstType_0::SimdSha256Hash            0      0.00%     86.37% # Class of committed instruction (Count)
system.cpu.commit.committedInstType_0::SimdSha256Hash2            0      0.00%     86.37% # Class of committed instruction (Count)
system.cpu.commit.committedInstType_0::SimdShaSigma2            0      0.00%     86.37% # Class of committed instruction (Count)
system.cpu.commit.committedInstType_0::SimdShaSigma3            0      0.00%     86.37% # Class of committed instruction (Count)
system.cpu.commit.committedInstType_0::SimdPredAlu            0      0.00%     86.37% # Class of committed instruction (Count)
system.cpu.commit.committedInstType_0::MemRead      2339967      9.48%     95.85% # Class of committed instruction (Count)
system.cpu.commit.committedInstType_0::MemWrite       989082      4.01%     99.86% # Class of committed instruction (Count)
system.cpu.commit.committedInstType_0::FloatMemRead        19172      0.08%     99.94% # Class of committed instruction (Count)
system.cpu.commit.committedInstType_0::FloatMemWrite        14965      0.06%    100.00% # Class of committed instruction (Count)
system.cpu.commit.committedInstType_0::IprAccess            0      0.00%    100.00% # Class of committed instruction (Count)
system.cpu.commit.committedInstType_0::InstPrefetch            0      0.00%    100.00% # Class of committed instruction (Count)
system.cpu.commit.committedInstType_0::total     24681799                       # Class of committed instruction (Count)
system.cpu.commit.commitEligibleSamples       1629987                       # number cycles where commit BW limit reached (Cycle)
system.cpu.dcache.demandHits::cpu.data        3316897                       # number of demand (read+write) hits (Count)
system.cpu.dcache.demandHits::total           3316897                       # number of demand (read+write) hits (Count)
system.cpu.dcache.overallHits::cpu.data       3316897                       # number of overall hits (Count)
system.cpu.dcache.overallHits::total          3316897                       # number of overall hits (Count)
system.cpu.dcache.demandMisses::cpu.data       313473                       # number of demand (read+write) misses (Count)
system.cpu.dcache.demandMisses::total          313473                       # number of demand (read+write) misses (Count)
system.cpu.dcache.overallMisses::cpu.data       313473                       # number of overall misses (Count)
system.cpu.dcache.overallMisses::total         313473                       # number of overall misses (Count)
system.cpu.dcache.demandMissLatency::cpu.data   7033289496                       # number of demand (read+write) miss ticks (Tick)
system.cpu.dcache.demandMissLatency::total   7033289496                       # number of demand (read+write) miss ticks (Tick)
system.cpu.dcache.overallMissLatency::cpu.data   7033289496                       # number of overall miss ticks (Tick)
system.cpu.dcache.overallMissLatency::total   7033289496                       # number of overall miss ticks (Tick)
system.cpu.dcache.demandAccesses::cpu.data      3630370                       # number of demand (read+write) accesses (Count)
system.cpu.dcache.demandAccesses::total       3630370                       # number of demand (read+write) accesses (Count)
system.cpu.dcache.overallAccesses::cpu.data      3630370                       # number of overall (read+write) accesses (Count)
system.cpu.dcache.overallAccesses::total      3630370                       # number of overall (read+write) accesses (Count)
system.cpu.dcache.demandMissRate::cpu.data     0.086347                       # miss rate for demand accesses (Ratio)
system.cpu.dcache.demandMissRate::total      0.086347                       # miss rate for demand accesses (Ratio)
system.cpu.dcache.overallMissRate::cpu.data     0.086347                       # miss rate for overall accesses (Ratio)
system.cpu.dcache.overallMissRate::total     0.086347                       # miss rate for overall accesses (Ratio)
system.cpu.dcache.demandAvgMissLatency::cpu.data 22436.667579                       # average overall miss latency ((Cycle/Count))
system.cpu.dcache.demandAvgMissLatency::total 22436.667579                       # average overall miss latency ((Cycle/Count))
system.cpu.dcache.overallAvgMissLatency::cpu.data 22436.667579                       # average overall miss latency ((Cycle/Count))
system.cpu.dcache.overallAvgMissLatency::total 22436.667579                       # average overall miss latency ((Cycle/Count))
system.cpu.dcache.blockedCycles::no_mshrs        24318                       # number of cycles access was blocked (Cycle)
system.cpu.dcache.blockedCycles::no_targets           16                       # number of cycles access was blocked (Cycle)
system.cpu.dcache.blockedCauses::no_mshrs          899                       # number of times access was blocked (Count)
system.cpu.dcache.blockedCauses::no_targets            5                       # number of times access was blocked (Count)
system.cpu.dcache.avgBlocked::no_mshrs      27.050056                       # average number of cycles each access was blocked ((Cycle/Count))
system.cpu.dcache.avgBlocked::no_targets     3.200000                       # average number of cycles each access was blocked ((Cycle/Count))
system.cpu.dcache.writebacks::writebacks        74271                       # number of writebacks (Count)
system.cpu.dcache.writebacks::total             74271                       # number of writebacks (Count)
system.cpu.dcache.demandMshrHits::cpu.data       224178                       # number of demand (read+write) MSHR hits (Count)
system.cpu.dcache.demandMshrHits::total        224178                       # number of demand (read+write) MSHR hits (Count)
system.cpu.dcache.overallMshrHits::cpu.data       224178                       # number of overall MSHR hits (Count)
system.cpu.dcache.overallMshrHits::total       224178                       # number of overall MSHR hits (Count)
system.cpu.dcache.demandMshrMisses::cpu.data        89295                       # number of demand (read+write) MSHR misses (Count)
system.cpu.dcache.demandMshrMisses::total        89295                       # number of demand (read+write) MSHR misses (Count)
system.cpu.dcache.overallMshrMisses::cpu.data        89295                       # number of overall MSHR misses (Count)
system.cpu.dcache.overallMshrMisses::total        89295                       # number of overall MSHR misses (Count)
system.cpu.dcache.demandMshrMissLatency::cpu.data   2255703496                       # number of demand (read+write) MSHR miss ticks (Tick)
system.cpu.dcache.demandMshrMissLatency::total   2255703496                       # number of demand (read+write) MSHR miss ticks (Tick)
system.cpu.dcache.overallMshrMissLatency::cpu.data   2255703496                       # number of overall MSHR miss ticks (Tick)
system.cpu.dcache.overallMshrMissLatency::total   2255703496                       # number of overall MSHR miss ticks (Tick)
system.cpu.dcache.demandMshrMissRate::cpu.data     0.024597                       # mshr miss ratio for demand accesses (Ratio)
system.cpu.dcache.demandMshrMissRate::total     0.024597                       # mshr miss ratio for demand accesses (Ratio)
system.cpu.dcache.overallMshrMissRate::cpu.data     0.024597                       # mshr miss ratio for overall accesses (Ratio)
system.cpu.dcache.overallMshrMissRate::total     0.024597                       # mshr miss ratio for overall accesses (Ratio)
system.cpu.dcache.demandAvgMshrMissLatency::cpu.data 25261.251985                       # average overall mshr miss latency ((Cycle/Count))
system.cpu.dcache.demandAvgMshrMissLatency::total 25261.251985                       # average overall mshr miss latency ((Cycle/Count))
system.cpu.dcache.overallAvgMshrMissLatency::cpu.data 25261.251985                       # average overall mshr miss latency ((Cycle/Count))
system.cpu.dcache.overallAvgMshrMissLatency::total 25261.251985                       # average overall mshr miss latency ((Cycle/Count))
system.cpu.dcache.replacements                  88269                       # number of replacements (Count)
system.cpu.dcache.ReadReq.hits::cpu.data      2337198                       # number of ReadReq hits (Count)
system.cpu.dcache.ReadReq.hits::total         2337198                       # number of ReadReq hits (Count)
system.cpu.dcache.ReadReq.misses::cpu.data       289112                       # number of ReadReq misses (Count)
system.cpu.dcache.ReadReq.misses::total        289112                       # number of ReadReq misses (Count)
system.cpu.dcache.ReadReq.missLatency::cpu.data   6097294000                       # number of ReadReq miss ticks (Tick)
system.cpu.dcache.ReadReq.missLatency::total   6097294000                       # number of ReadReq miss ticks (Tick)
system.cpu.dcache.ReadReq.accesses::cpu.data      2626310                       # number of ReadReq accesses(hits+misses) (Count)
system.cpu.dcache.ReadReq.accesses::total      2626310                       # number of ReadReq accesses(hits+misses) (Count)
system.cpu.dcache.ReadReq.missRate::cpu.data     0.110083                       # miss rate for ReadReq accesses (Ratio)
system.cpu.dcache.ReadReq.missRate::total     0.110083                       # miss rate for ReadReq accesses (Ratio)
system.cpu.dcache.ReadReq.avgMissLatency::cpu.data 21089.729932                       # average ReadReq miss latency ((Tick/Count))
system.cpu.dcache.ReadReq.avgMissLatency::total 21089.729932                       # average ReadReq miss latency ((Tick/Count))
system.cpu.dcache.ReadReq.mshrHits::cpu.data       224020                       # number of ReadReq MSHR hits (Count)
system.cpu.dcache.ReadReq.mshrHits::total       224020                       # number of ReadReq MSHR hits (Count)
system.cpu.dcache.ReadReq.mshrMisses::cpu.data        65092                       # number of ReadReq MSHR misses (Count)
system.cpu.dcache.ReadReq.mshrMisses::total        65092                       # number of ReadReq MSHR misses (Count)
system.cpu.dcache.ReadReq.mshrMissLatency::cpu.data   1345435500                       # number of ReadReq MSHR miss ticks (Tick)
system.cpu.dcache.ReadReq.mshrMissLatency::total   1345435500                       # number of ReadReq MSHR miss ticks (Tick)
system.cpu.dcache.ReadReq.mshrMissRate::cpu.data     0.024785                       # mshr miss rate for ReadReq accesses (Ratio)
system.cpu.dcache.ReadReq.mshrMissRate::total     0.024785                       # mshr miss rate for ReadReq accesses (Ratio)
system.cpu.dcache.ReadReq.avgMshrMissLatency::cpu.data 20669.752043                       # average ReadReq mshr miss latency ((Tick/Count))
system.cpu.dcache.ReadReq.avgMshrMissLatency::total 20669.752043                       # average ReadReq mshr miss latency ((Tick/Count))
system.cpu.dcache.WriteReq.hits::cpu.data       979699                       # number of WriteReq hits (Count)
system.cpu.dcache.WriteReq.hits::total         979699                       # number of WriteReq hits (Count)
system.cpu.dcache.WriteReq.misses::cpu.data        24361                       # number of WriteReq misses (Count)
system.cpu.dcache.WriteReq.misses::total        24361                       # number of WriteReq misses (Count)
system.cpu.dcache.WriteReq.missLatency::cpu.data    935995496                       # number of WriteReq miss ticks (Tick)
system.cpu.dcache.WriteReq.missLatency::total    935995496                       # number of WriteReq miss ticks (Tick)
system.cpu.dcache.WriteReq.accesses::cpu.data      1004060                       # number of WriteReq accesses(hits+misses) (Count)
system.cpu.dcache.WriteReq.accesses::total      1004060                       # number of WriteReq accesses(hits+misses) (Count)
system.cpu.dcache.WriteReq.missRate::cpu.data     0.024262                       # miss rate for WriteReq accesses (Ratio)
system.cpu.dcache.WriteReq.missRate::total     0.024262                       # miss rate for WriteReq accesses (Ratio)
system.cpu.dcache.WriteReq.avgMissLatency::cpu.data 38421.883174                       # average WriteReq miss latency ((Tick/Count))
system.cpu.dcache.WriteReq.avgMissLatency::total 38421.883174                       # average WriteReq miss latency ((Tick/Count))
system.cpu.dcache.WriteReq.mshrHits::cpu.data          158                       # number of WriteReq MSHR hits (Count)
system.cpu.dcache.WriteReq.mshrHits::total          158                       # number of WriteReq MSHR hits (Count)
system.cpu.dcache.WriteReq.mshrMisses::cpu.data        24203                       # number of WriteReq MSHR misses (Count)
system.cpu.dcache.WriteReq.mshrMisses::total        24203                       # number of WriteReq MSHR misses (Count)
system.cpu.dcache.WriteReq.mshrMissLatency::cpu.data    910267996                       # number of WriteReq MSHR miss ticks (Tick)
system.cpu.dcache.WriteReq.mshrMissLatency::total    910267996                       # number of WriteReq MSHR miss ticks (Tick)
system.cpu.dcache.WriteReq.mshrMissRate::cpu.data     0.024105                       # mshr miss rate for WriteReq accesses (Ratio)
system.cpu.dcache.WriteReq.mshrMissRate::total     0.024105                       # mshr miss rate for WriteReq accesses (Ratio)
system.cpu.dcache.WriteReq.avgMshrMissLatency::cpu.data 37609.717638                       # average WriteReq mshr miss latency ((Tick/Count))
system.cpu.dcache.WriteReq.avgMshrMissLatency::total 37609.717638                       # average WriteReq mshr miss latency ((Tick/Count))
system.cpu.dcache.power_state.pwrStateResidencyTicks::UNDEFINED   4968558500                       # Cumulative time (in ticks) in various power states (Tick)
system.cpu.dcache.tags.tagsInUse          1011.074939                       # Average ticks per tags in use ((Tick/Count))
system.cpu.dcache.tags.totalRefs              3406194                       # Total number of references to valid blocks. (Count)
system.cpu.dcache.tags.sampledRefs              89293                       # Sample count of references to valid blocks. (Count)
system.cpu.dcache.tags.avgRefs              38.146260                       # Average number of references to valid blocks. ((Count/Count))
system.cpu.dcache.tags.warmupTick              132500                       # The tick when the warmup percentage was hit. (Tick)
system.cpu.dcache.tags.occupancies::cpu.data  1011.074939                       # Average occupied blocks per tick, per requestor ((Count/Tick))
system.cpu.dcache.tags.avgOccs::cpu.data     0.987378                       # Average percentage of cache occupancy ((Ratio/Tick))
system.cpu.dcache.tags.avgOccs::total        0.987378                       # Average percentage of cache occupancy ((Ratio/Tick))
system.cpu.dcache.tags.occupanciesTaskId::1024         1024                       # Occupied blocks per task id (Count)
system.cpu.dcache.tags.ageTaskId_1024::0          207                       # Occupied blocks per task id, per block age (Count)
system.cpu.dcache.tags.ageTaskId_1024::1          767                       # Occupied blocks per task id, per block age (Count)
system.cpu.dcache.tags.ageTaskId_1024::2           50                       # Occupied blocks per task id, per block age (Count)
system.cpu.dcache.tags.ratioOccsTaskId::1024            1                       # Ratio of occupied blocks and all blocks, per task id (Ratio)
system.cpu.dcache.tags.tagAccesses            3719663                       # Number of tag accesses (Count)
system.cpu.dcache.tags.dataAccesses           3719663                       # Number of data accesses (Count)
system.cpu.dcache.tags.power_state.pwrStateResidencyTicks::UNDEFINED   4968558500                       # Cumulative time (in ticks) in various power states (Tick)
system.cpu.decode.idleCycles                  1947123                       # Number of cycles decode is idle (Cycle)
system.cpu.decode.blockedCycles               2999766                       # Number of cycles decode is blocked (Cycle)
system.cpu.decode.runCycles                   4331384                       # Number of cycles decode is running (Cycle)
system.cpu.decode.unblockCycles                417614                       # Number of cycles decode is unblocking (Cycle)
system.cpu.decode.squashCycles                  81514                       # Number of cycles decode is squashing (Cycle)
system.cpu.decode.branchResolved              2099276                       # Number of times decode resolved a branch (Count)
system.cpu.decode.branchMispred                  1533                       # Number of times decode detected a branch misprediction (Count)
system.cpu.decode.decodedInsts               29939896                       # Number of instructions handled by decode (Count)
system.cpu.decode.squashedInsts                  7425                       # Number of squashed instructions handled by decode (Count)
system.cpu.dtb_walker_cache.blockedCycles::no_mshrs            0                       # number of cycles access was blocked (Cycle)
system.cpu.dtb_walker_cache.blockedCycles::no_targets            0                       # number of cycles access was blocked (Cycle)
system.cpu.dtb_walker_cache.blockedCauses::no_mshrs            0                       # number of times access was blocked (Count)
system.cpu.dtb_walker_cache.blockedCauses::no_targets            0                       # number of times access was blocked (Count)
system.cpu.dtb_walker_cache.avgBlocked::no_mshrs          nan                       # average number of cycles each access was blocked ((Cycle/Count))
system.cpu.dtb_walker_cache.avgBlocked::no_targets          nan                       # average number of cycles each access was blocked ((Cycle/Count))
system.cpu.dtb_walker_cache.replacements            0                       # number of replacements (Count)
system.cpu.dtb_walker_cache.power_state.pwrStateResidencyTicks::UNDEFINED   4968558500                       # Cumulative time (in ticks) in various power states (Tick)
system.cpu.dtb_walker_cache.tags.tagsInUse            0                       # Average ticks per tags in use ((Tick/Count))
system.cpu.dtb_walker_cache.tags.totalRefs            0                       # Total number of references to valid blocks. (Count)
system.cpu.dtb_walker_cache.tags.sampledRefs            0                       # Sample count of references to valid blocks. (Count)
system.cpu.dtb_walker_cache.tags.avgRefs          nan                       # Average number of references to valid blocks. ((Count/Count))
system.cpu.dtb_walker_cache.tags.warmupTick            0                       # The tick when the warmup percentage was hit. (Tick)
system.cpu.dtb_walker_cache.tags.tagAccesses            0                       # Number of tag accesses (Count)
system.cpu.dtb_walker_cache.tags.dataAccesses            0                       # Number of data accesses (Count)
system.cpu.dtb_walker_cache.tags.power_state.pwrStateResidencyTicks::UNDEFINED   4968558500                       # Cumulative time (in ticks) in various power states (Tick)
system.cpu.fetch.icacheStallCycles            2006159                       # Number of cycles fetch is stalled on an Icache miss (Cycle)
system.cpu.fetch.insts                       16461151                       # Number of instructions fetch has processed (Count)
system.cpu.fetch.branches                     3875487                       # Number of branches that fetch encountered (Count)
system.cpu.fetch.predictedBranches            2252264                       # Number of branches that fetch has predicted taken (Count)
system.cpu.fetch.cycles                       7683251                       # Number of cycles fetch has run and was not squashing or blocked (Cycle)
system.cpu.fetch.squashCycles                  166026                       # Number of cycles fetch has spent squashing (Cycle)
system.cpu.fetch.miscStallCycles                  606                       # Number of cycles fetch has spent waiting on interrupts, or bad addresses, or out of MSHRs (Cycle)
system.cpu.fetch.pendingTrapStallCycles          4305                       # Number of stall cycles due to pending traps (Cycle)
system.cpu.fetch.pendingQuiesceStallCycles           41                       # Number of stall cycles due to pending quiesce instructions (Cycle)
system.cpu.fetch.icacheWaitRetryStallCycles           26                       # Number of stall cycles due to full MSHR (Cycle)
system.cpu.fetch.cacheLines                   1896937                       # Number of cache lines fetched (Count)
system.cpu.fetch.icacheSquashes                 18217                       # Number of outstanding Icache misses that were squashed (Count)
system.cpu.fetch.nisnDist::samples            9777401                       # Number of instructions fetched each cycle (Total) (Count)
system.cpu.fetch.nisnDist::mean              3.162961                       # Number of instructions fetched each cycle (Total) (Count)
system.cpu.fetch.nisnDist::stdev             3.424849                       # Number of instructions fetched each cycle (Total) (Count)
system.cpu.fetch.nisnDist::underflows               0      0.00%      0.00% # Number of instructions fetched each cycle (Total) (Count)
system.cpu.fetch.nisnDist::0                  4512900     46.16%     46.16% # Number of instructions fetched each cycle (Total) (Count)
system.cpu.fetch.nisnDist::1                   311661      3.19%     49.34% # Number of instructions fetched each cycle (Total) (Count)
system.cpu.fetch.nisnDist::2                   391622      4.01%     53.35% # Number of instructions fetched each cycle (Total) (Count)
system.cpu.fetch.nisnDist::3                   603017      6.17%     59.52% # Number of instructions fetched each cycle (Total) (Count)
system.cpu.fetch.nisnDist::4                   287613      2.94%     62.46% # Number of instructions fetched each cycle (Total) (Count)
system.cpu.fetch.nisnDist::5                   295899      3.03%     65.48% # Number of instructions fetched each cycle (Total) (Count)
system.cpu.fetch.nisnDist::6                   652297      6.67%     72.16% # Number of instructions fetched each cycle (Total) (Count)
system.cpu.fetch.nisnDist::7                   301280      3.08%     75.24% # Number of instructions fetched each cycle (Total) (Count)
system.cpu.fetch.nisnDist::8                  2421112     24.76%    100.00% # Number of instructions fetched each cycle (Total) (Count)
system.cpu.fetch.nisnDist::overflows                0      0.00%    100.00% # Number of instructions fetched each cycle (Total) (Count)
system.cpu.fetch.nisnDist::min_value                0                       # Number of instructions fetched each cycle (Total) (Count)
system.cpu.fetch.nisnDist::max_value                8                       # Number of instructions fetched each cycle (Total) (Count)
system.cpu.fetch.nisnDist::total              9777401                       # Number of instructions fetched each cycle (Total) (Count)
system.cpu.fetch.branchRate                  0.390001                       # Number of branch fetches per cycle (Ratio)
system.cpu.fetch.rate                        1.656532                       # Number of inst fetches per cycle ((Count/Cycle))
system.cpu.icache.demandHits::cpu.inst        1892386                       # number of demand (read+write) hits (Count)
system.cpu.icache.demandHits::total           1892386                       # number of demand (read+write) hits (Count)
system.cpu.icache.overallHits::cpu.inst       1892386                       # number of overall hits (Count)
system.cpu.icache.overallHits::total          1892386                       # number of overall hits (Count)
system.cpu.icache.demandMisses::cpu.inst         4551                       # number of demand (read+write) misses (Count)
system.cpu.icache.demandMisses::total            4551                       # number of demand (read+write) misses (Count)
system.cpu.icache.overallMisses::cpu.inst         4551                       # number of overall misses (Count)
system.cpu.icache.overallMisses::total           4551                       # number of overall misses (Count)
system.cpu.icache.demandMissLatency::cpu.inst    219880999                       # number of demand (read+write) miss ticks (Tick)
system.cpu.icache.demandMissLatency::total    219880999                       # number of demand (read+write) miss ticks (Tick)
system.cpu.icache.overallMissLatency::cpu.inst    219880999                       # number of overall miss ticks (Tick)
system.cpu.icache.overallMissLatency::total    219880999                       # number of overall miss ticks (Tick)
system.cpu.icache.demandAccesses::cpu.inst      1896937                       # number of demand (read+write) accesses (Count)
system.cpu.icache.demandAccesses::total       1896937                       # number of demand (read+write) accesses (Count)
system.cpu.icache.overallAccesses::cpu.inst      1896937                       # number of overall (read+write) accesses (Count)
system.cpu.icache.overallAccesses::total      1896937                       # number of overall (read+write) accesses (Count)
system.cpu.icache.demandMissRate::cpu.inst     0.002399                       # miss rate for demand accesses (Ratio)
system.cpu.icache.demandMissRate::total      0.002399                       # miss rate for demand accesses (Ratio)
system.cpu.icache.overallMissRate::cpu.inst     0.002399                       # miss rate for overall accesses (Ratio)
system.cpu.icache.overallMissRate::total     0.002399                       # miss rate for overall accesses (Ratio)
system.cpu.icache.demandAvgMissLatency::cpu.inst 48314.875632                       # average overall miss latency ((Cycle/Count))
system.cpu.icache.demandAvgMissLatency::total 48314.875632                       # average overall miss latency ((Cycle/Count))
system.cpu.icache.overallAvgMissLatency::cpu.inst 48314.875632                       # average overall miss latency ((Cycle/Count))
system.cpu.icache.overallAvgMissLatency::total 48314.875632                       # average overall miss latency ((Cycle/Count))
system.cpu.icache.blockedCycles::no_mshrs          553                       # number of cycles access was blocked (Cycle)
system.cpu.icache.blockedCycles::no_targets            0                       # number of cycles access was blocked (Cycle)
system.cpu.icache.blockedCauses::no_mshrs           11                       # number of times access was blocked (Count)
system.cpu.icache.blockedCauses::no_targets            0                       # number of times access was blocked (Count)
system.cpu.icache.avgBlocked::no_mshrs      50.272727                       # average number of cycles each access was blocked ((Cycle/Count))
system.cpu.icache.avgBlocked::no_targets          nan                       # average number of cycles each access was blocked ((Cycle/Count))
system.cpu.icache.writebacks::writebacks         3168                       # number of writebacks (Count)
system.cpu.icache.writebacks::total              3168                       # number of writebacks (Count)
system.cpu.icache.demandMshrHits::cpu.inst          869                       # number of demand (read+write) MSHR hits (Count)
system.cpu.icache.demandMshrHits::total           869                       # number of demand (read+write) MSHR hits (Count)
system.cpu.icache.overallMshrHits::cpu.inst          869                       # number of overall MSHR hits (Count)
system.cpu.icache.overallMshrHits::total          869                       # number of overall MSHR hits (Count)
system.cpu.icache.demandMshrMisses::cpu.inst         3682                       # number of demand (read+write) MSHR misses (Count)
system.cpu.icache.demandMshrMisses::total         3682                       # number of demand (read+write) MSHR misses (Count)
system.cpu.icache.overallMshrMisses::cpu.inst         3682                       # number of overall MSHR misses (Count)
system.cpu.icache.overallMshrMisses::total         3682                       # number of overall MSHR misses (Count)
system.cpu.icache.demandMshrMissLatency::cpu.inst    178619999                       # number of demand (read+write) MSHR miss ticks (Tick)
system.cpu.icache.demandMshrMissLatency::total    178619999                       # number of demand (read+write) MSHR miss ticks (Tick)
system.cpu.icache.overallMshrMissLatency::cpu.inst    178619999                       # number of overall MSHR miss ticks (Tick)
system.cpu.icache.overallMshrMissLatency::total    178619999                       # number of overall MSHR miss ticks (Tick)
system.cpu.icache.demandMshrMissRate::cpu.inst     0.001941                       # mshr miss ratio for demand accesses (Ratio)
system.cpu.icache.demandMshrMissRate::total     0.001941                       # mshr miss ratio for demand accesses (Ratio)
system.cpu.icache.overallMshrMissRate::cpu.inst     0.001941                       # mshr miss ratio for overall accesses (Ratio)
system.cpu.icache.overallMshrMissRate::total     0.001941                       # mshr miss ratio for overall accesses (Ratio)
system.cpu.icache.demandAvgMshrMissLatency::cpu.inst 48511.678164                       # average overall mshr miss latency ((Cycle/Count))
system.cpu.icache.demandAvgMshrMissLatency::total 48511.678164                       # average overall mshr miss latency ((Cycle/Count))
system.cpu.icache.overallAvgMshrMissLatency::cpu.inst 48511.678164                       # average overall mshr miss latency ((Cycle/Count))
system.cpu.icache.overallAvgMshrMissLatency::total 48511.678164                       # average overall mshr miss latency ((Cycle/Count))
system.cpu.icache.replacements                   3168                       # number of replacements (Count)
system.cpu.icache.ReadReq.hits::cpu.inst      1892386                       # number of ReadReq hits (Count)
system.cpu.icache.ReadReq.hits::total         1892386                       # number of ReadReq hits (Count)
system.cpu.icache.ReadReq.misses::cpu.inst         4551                       # number of ReadReq misses (Count)
system.cpu.icache.ReadReq.misses::total          4551                       # number of ReadReq misses (Count)
system.cpu.icache.ReadReq.missLatency::cpu.inst    219880999                       # number of ReadReq miss ticks (Tick)
system.cpu.icache.ReadReq.missLatency::total    219880999                       # number of ReadReq miss ticks (Tick)
system.cpu.icache.ReadReq.accesses::cpu.inst      1896937                       # number of ReadReq accesses(hits+misses) (Count)
system.cpu.icache.ReadReq.accesses::total      1896937                       # number of ReadReq accesses(hits+misses) (Count)
system.cpu.icache.ReadReq.missRate::cpu.inst     0.002399                       # miss rate for ReadReq accesses (Ratio)
system.cpu.icache.ReadReq.missRate::total     0.002399                       # miss rate for ReadReq accesses (Ratio)
system.cpu.icache.ReadReq.avgMissLatency::cpu.inst 48314.875632                       # average ReadReq miss latency ((Tick/Count))
system.cpu.icache.ReadReq.avgMissLatency::total 48314.875632                       # average ReadReq miss latency ((Tick/Count))
system.cpu.icache.ReadReq.mshrHits::cpu.inst          869                       # number of ReadReq MSHR hits (Count)
system.cpu.icache.ReadReq.mshrHits::total          869                       # number of ReadReq MSHR hits (Count)
system.cpu.icache.ReadReq.mshrMisses::cpu.inst         3682                       # number of ReadReq MSHR misses (Count)
system.cpu.icache.ReadReq.mshrMisses::total         3682                       # number of ReadReq MSHR misses (Count)
system.cpu.icache.ReadReq.mshrMissLatency::cpu.inst    178619999                       # number of ReadReq MSHR miss ticks (Tick)
system.cpu.icache.ReadReq.mshrMissLatency::total    178619999                       # number of ReadReq MSHR miss ticks (Tick)
system.cpu.icache.ReadReq.mshrMissRate::cpu.inst     0.001941                       # mshr miss rate for ReadReq accesses (Ratio)
system.cpu.icache.ReadReq.mshrMissRate::total     0.001941                       # mshr miss rate for ReadReq accesses (Ratio)
system.cpu.icache.ReadReq.avgMshrMissLatency::cpu.inst 48511.678164                       # average ReadReq mshr miss latency ((Tick/Count))
system.cpu.icache.ReadReq.avgMshrMissLatency::total 48511.678164                       # average ReadReq mshr miss latency ((Tick/Count))
system.cpu.icache.power_state.pwrStateResidencyTicks::UNDEFINED   4968558500                       # Cumulative time (in ticks) in various power states (Tick)
system.cpu.icache.tags.tagsInUse           504.025549                       # Average ticks per tags in use ((Tick/Count))
system.cpu.icache.tags.totalRefs              1896067                       # Total number of references to valid blocks. (Count)
system.cpu.icache.tags.sampledRefs               3681                       # Sample count of references to valid blocks. (Count)
system.cpu.icache.tags.avgRefs             515.095626                       # Average number of references to valid blocks. ((Count/Count))
system.cpu.icache.tags.warmupTick               62500                       # The tick when the warmup percentage was hit. (Tick)
system.cpu.icache.tags.occupancies::cpu.inst   504.025549                       # Average occupied blocks per tick, per requestor ((Count/Tick))
system.cpu.icache.tags.avgOccs::cpu.inst     0.984425                       # Average percentage of cache occupancy ((Ratio/Tick))
system.cpu.icache.tags.avgOccs::total        0.984425                       # Average percentage of cache occupancy ((Ratio/Tick))
system.cpu.icache.tags.occupanciesTaskId::1024          511                       # Occupied blocks per task id (Count)
system.cpu.icache.tags.ageTaskId_1024::0          153                       # Occupied blocks per task id, per block age (Count)
system.cpu.icache.tags.ageTaskId_1024::1          254                       # Occupied blocks per task id, per block age (Count)
system.cpu.icache.tags.ageTaskId_1024::2           11                       # Occupied blocks per task id, per block age (Count)
system.cpu.icache.tags.ageTaskId_1024::3           93                       # Occupied blocks per task id, per block age (Count)
system.cpu.icache.tags.ratioOccsTaskId::1024     0.998047                       # Ratio of occupied blocks and all blocks, per task id (Ratio)
system.cpu.icache.tags.tagAccesses            3797555                       # Number of tag accesses (Count)
system.cpu.icache.tags.dataAccesses           3797555                       # Number of data accesses (Count)
system.cpu.icache.tags.power_state.pwrStateResidencyTicks::UNDEFINED   4968558500                       # Cumulative time (in ticks) in various power states (Tick)
system.cpu.iew.idleCycles                           0                       # Number of cycles IEW is idle (Cycle)
system.cpu.iew.squashCycles                     81514                       # Number of cycles IEW is squashing (Cycle)
system.cpu.iew.blockCycles                    1337039                       # Number of cycles IEW is blocking (Cycle)
system.cpu.iew.unblockCycles                    77095                       # Number of cycles IEW is unblocking (Cycle)
system.cpu.iew.dispatchedInsts               28847757                       # Number of instructions dispatched to IQ (Count)
system.cpu.iew.dispSquashedInsts                 4506                       # Number of squashed instructions skipped by dispatch (Count)
system.cpu.iew.dispLoadInsts                  2910529                       # Number of dispatched load instructions (Count)
system.cpu.iew.dispStoreInsts                 1213158                       # Number of dispatched store instructions (Count)
system.cpu.iew.dispNonSpecInsts                 21880                       # Number of dispatched non-speculative instructions (Count)
system.cpu.iew.iqFullEvents                     29656                       # Number of times the IQ has become full, causing a stall (Count)
system.cpu.iew.lsqFullEvents                    34988                       # Number of times the LSQ has become full, causing a stall (Count)
system.cpu.iew.memOrderViolationEvents            225                       # Number of memory order violations (Count)
system.cpu.iew.predictedTakenIncorrect          51414                       # Number of branches that were predicted taken incorrectly (Count)
system.cpu.iew.predictedNotTakenIncorrect        52748                       # Number of branches that were predicted not taken incorrectly (Count)
system.cpu.iew.branchMispredicts               104162                       # Number of branch mispredicts detected at execute (Count)
system.cpu.iew.instsToCommit                 27140294                       # Cumulative count of insts sent to commit (Count)
system.cpu.iew.writebackCount                27109727                       # Cumulative count of insts written-back (Count)
system.cpu.iew.producerInst                  21000351                       # Number of instructions producing a value (Count)
system.cpu.iew.consumerInst                  34571664                       # Number of instructions consuming a value (Count)
system.cpu.iew.wbRate                        2.728128                       # Insts written-back per cycle ((Count/Cycle))
system.cpu.iew.wbFanout                      0.607444                       # Average fanout of values written-back ((Count/Count))
system.cpu.interrupts.clk_domain.clock           8000                       # Clock period in ticks (Tick)
system.cpu.itb_walker_cache.blockedCycles::no_mshrs            0                       # number of cycles access was blocked (Cycle)
system.cpu.itb_walker_cache.blockedCycles::no_targets            0                       # number of cycles access was blocked (Cycle)
system.cpu.itb_walker_cache.blockedCauses::no_mshrs            0                       # number of times access was blocked (Count)
system.cpu.itb_walker_cache.blockedCauses::no_targets            0                       # number of times access was blocked (Count)
system.cpu.itb_walker_cache.avgBlocked::no_mshrs          nan                       # average number of cycles each access was blocked ((Cycle/Count))
system.cpu.itb_walker_cache.avgBlocked::no_targets          nan                       # average number of cycles each access was blocked ((Cycle/Count))
system.cpu.itb_walker_cache.replacements            0                       # number of replacements (Count)
system.cpu.itb_walker_cache.power_state.pwrStateResidencyTicks::UNDEFINED   4968558500                       # Cumulative time (in ticks) in various power states (Tick)
system.cpu.itb_walker_cache.tags.tagsInUse            0                       # Average ticks per tags in use ((Tick/Count))
system.cpu.itb_walker_cache.tags.totalRefs            0                       # Total number of references to valid blocks. (Count)
system.cpu.itb_walker_cache.tags.sampledRefs            0                       # Sample count of references to valid blocks. (Count)
system.cpu.itb_walker_cache.tags.avgRefs          nan                       # Average number of references to valid blocks. ((Count/Count))
system.cpu.itb_walker_cache.tags.warmupTick            0                       # The tick when the warmup percentage was hit. (Tick)
system.cpu.itb_walker_cache.tags.tagAccesses            0                       # Number of tag accesses (Count)
system.cpu.itb_walker_cache.tags.dataAccesses            0                       # Number of data accesses (Count)
system.cpu.itb_walker_cache.tags.power_state.pwrStateResidencyTicks::UNDEFINED   4968558500                       # Cumulative time (in ticks) in various power states (Tick)
system.cpu.lsq0.forwLoads                       54855                       # Number of loads that had data forwarded from stores (Count)
system.cpu.lsq0.squashedLoads                  551390                       # Number of loads squashed (Count)
system.cpu.lsq0.ignoredResponses                  219                       # Number of memory responses ignored because the instruction is squashed (Count)
system.cpu.lsq0.memOrderViolation                 225                       # Number of memory ordering violations (Count)
system.cpu.lsq0.squashedStores                 209111                       # Number of stores squashed (Count)
system.cpu.lsq0.rescheduledLoads                   23                       # Number of loads that were rescheduled (Count)
system.cpu.lsq0.blockedByCache                    684                       # Number of times an access to memory failed due to the cache being blocked (Count)
system.cpu.lsq0.loadToUse::samples            2359139                       # Distribution of cycle latency between the first time a load is issued and its completion (Unspecified)
system.cpu.lsq0.loadToUse::mean              7.302880                       # Distribution of cycle latency between the first time a load is issued and its completion (Unspecified)
system.cpu.lsq0.loadToUse::stdev            17.990700                       # Distribution of cycle latency between the first time a load is issued and its completion (Unspecified)
system.cpu.lsq0.loadToUse::0-9                2129471     90.26%     90.26% # Distribution of cycle latency between the first time a load is issued and its completion (Unspecified)
system.cpu.lsq0.loadToUse::10-19                42132      1.79%     92.05% # Distribution of cycle latency between the first time a load is issued and its completion (Unspecified)
system.cpu.lsq0.loadToUse::20-29               129048      5.47%     97.52% # Distribution of cycle latency between the first time a load is issued and its completion (Unspecified)
system.cpu.lsq0.loadToUse::30-39                 3396      0.14%     97.66% # Distribution of cycle latency between the first time a load is issued and its completion (Unspecified)
system.cpu.lsq0.loadToUse::40-49                  330      0.01%     97.68% # Distribution of cycle latency between the first time a load is issued and its completion (Unspecified)
system.cpu.lsq0.loadToUse::50-59                  486      0.02%     97.70% # Distribution of cycle latency between the first time a load is issued and its completion (Unspecified)
system.cpu.lsq0.loadToUse::60-69                  582      0.02%     97.72% # Distribution of cycle latency between the first time a load is issued and its completion (Unspecified)
[...]
system.l2.ReadSharedReq.missLatency::total    666054500                       # number of ReadSharedReq miss ticks (Tick)
system.l2.ReadSharedReq.accesses::cpu.data        65089                       # number of ReadSharedReq accesses(hits+misses) (Count)
system.l2.ReadSharedReq.accesses::total         65089                       # number of ReadSharedReq accesses(hits+misses) (Count)
system.l2.ReadSharedReq.missRate::cpu.data     0.167647                       # miss rate for ReadSharedReq accesses (Ratio)
system.l2.ReadSharedReq.missRate::total      0.167647                       # miss rate for ReadSharedReq accesses (Ratio)
system.l2.ReadSharedReq.avgMissLatency::cpu.data 61038.718842                       # average ReadSharedReq miss latency ((Tick/Count))
system.l2.ReadSharedReq.avgMissLatency::total 61038.718842                       # average ReadSharedReq miss latency ((Tick/Count))
system.l2.ReadSharedReq.mshrMisses::cpu.data        10912                       # number of ReadSharedReq MSHR misses (Count)
system.l2.ReadSharedReq.mshrMisses::total        10912                       # number of ReadSharedReq MSHR misses (Count)
system.l2.ReadSharedReq.mshrMissLatency::cpu.data    556934500                       # number of ReadSharedReq MSHR miss ticks (Tick)
system.l2.ReadSharedReq.mshrMissLatency::total    556934500                       # number of ReadSharedReq MSHR miss ticks (Tick)
system.l2.ReadSharedReq.mshrMissRate::cpu.data     0.167647                       # mshr miss rate for ReadSharedReq accesses (Ratio)
system.l2.ReadSharedReq.mshrMissRate::total     0.167647                       # mshr miss rate for ReadSharedReq accesses (Ratio)
system.l2.ReadSharedReq.avgMshrMissLatency::cpu.data 51038.718842                       # average ReadSharedReq mshr miss latency ((Tick/Count))
system.l2.ReadSharedReq.avgMshrMissLatency::total 51038.718842                       # average ReadSharedReq mshr miss latency ((Tick/Count))
system.l2.UpgradeReq.hits::cpu.data                 2                       # number of UpgradeReq hits (Count)
system.l2.UpgradeReq.hits::total                    2                       # number of UpgradeReq hits (Count)
system.l2.UpgradeReq.accesses::cpu.data             2                       # number of UpgradeReq accesses(hits+misses) (Count)
system.l2.UpgradeReq.accesses::total                2                       # number of UpgradeReq accesses(hits+misses) (Count)
system.l2.WritebackClean.hits::writebacks         3166                       # number of WritebackClean hits (Count)
system.l2.WritebackClean.hits::total             3166                       # number of WritebackClean hits (Count)
system.l2.WritebackClean.accesses::writebacks         3166                       # number of WritebackClean accesses(hits+misses) (Count)
system.l2.WritebackClean.accesses::total         3166                       # number of WritebackClean accesses(hits+misses) (Count)
system.l2.WritebackDirty.hits::writebacks        74271                       # number of WritebackDirty hits (Count)
system.l2.WritebackDirty.hits::total            74271                       # number of WritebackDirty hits (Count)
system.l2.WritebackDirty.accesses::writebacks        74271                       # number of WritebackDirty accesses(hits+misses) (Count)
system.l2.WritebackDirty.accesses::total        74271                       # number of WritebackDirty accesses(hits+misses) (Count)
system.l2.power_state.pwrStateResidencyTicks::UNDEFINED   4968558500                       # Cumulative time (in ticks) in various power states (Tick)
system.l2.tags.tagsInUse                 18329.987179                       # Average ticks per tags in use ((Tick/Count))
system.l2.tags.totalRefs                       184405                       # Total number of references to valid blocks. (Count)
system.l2.tags.sampledRefs                      25772                       # Sample count of references to valid blocks. (Count)
system.l2.tags.avgRefs                       7.155246                       # Average number of references to valid blocks. ((Count/Count))
system.l2.tags.warmupTick                       52000                       # The tick when the warmup percentage was hit. (Tick)
system.l2.tags.occupancies::writebacks       0.016013                       # Average occupied blocks per tick, per requestor ((Count/Tick))
system.l2.tags.occupancies::cpu.inst      1830.967446                       # Average occupied blocks per tick, per requestor ((Count/Tick))
system.l2.tags.occupancies::cpu.data     16499.003721                       # Average occupied blocks per tick, per requestor ((Count/Tick))
system.l2.tags.avgOccs::writebacks           0.000000                       # Average percentage of cache occupancy ((Ratio/Tick))
system.l2.tags.avgOccs::cpu.inst             0.055877                       # Average percentage of cache occupancy ((Ratio/Tick))
system.l2.tags.avgOccs::cpu.data             0.503510                       # Average percentage of cache occupancy ((Ratio/Tick))
system.l2.tags.avgOccs::total                0.559387                       # Average percentage of cache occupancy ((Ratio/Tick))
system.l2.tags.occupanciesTaskId::1024          25647                       # Occupied blocks per task id (Count)
system.l2.tags.ageTaskId_1024::0                  118                       # Occupied blocks per task id, per block age (Count)
system.l2.tags.ageTaskId_1024::1                  391                       # Occupied blocks per task id, per block age (Count)
system.l2.tags.ageTaskId_1024::2                  238                       # Occupied blocks per task id, per block age (Count)
system.l2.tags.ageTaskId_1024::3                24900                       # Occupied blocks per task id, per block age (Count)
system.l2.tags.ratioOccsTaskId::1024         0.782684                       # Ratio of occupied blocks and all blocks, per task id (Ratio)
system.l2.tags.tagAccesses                    1501020                       # Number of tag accesses (Count)
system.l2.tags.dataAccesses                   1501020                       # Number of data accesses (Count)
system.l2.tags.power_state.pwrStateResidencyTicks::UNDEFINED   4968558500                       # Cumulative time (in ticks) in various power states (Tick)
system.mem_ctrls.bytesRead::cpu.inst           169856                       # Number of bytes read from this memory (Byte)
system.mem_ctrls.bytesRead::cpu.data          1479424                       # Number of bytes read from this memory (Byte)
system.mem_ctrls.bytesRead::total             1649280                       # Number of bytes read from this memory (Byte)
system.mem_ctrls.bytesInstRead::cpu.inst       169856                       # Number of instructions bytes read from this memory (Byte)
system.mem_ctrls.bytesInstRead::total          169856                       # Number of instructions bytes read from this memory (Byte)
system.mem_ctrls.bytesWritten::writebacks         1728                       # Number of bytes written to this memory (Byte)
system.mem_ctrls.bytesWritten::total             1728                       # Number of bytes written to this memory (Byte)
system.mem_ctrls.numReads::cpu.inst              2654                       # Number of read requests responded to by this memory (Count)
system.mem_ctrls.numReads::cpu.data             23116                       # Number of read requests responded to by this memory (Count)
system.mem_ctrls.numReads::total                25770                       # Number of read requests responded to by this memory (Count)
system.mem_ctrls.numWrites::writebacks             27                       # Number of write requests responded to by this memory (Count)
system.mem_ctrls.numWrites::total                  27                       # Number of write requests responded to by this memory (Count)
system.mem_ctrls.bwRead::cpu.inst            34186173                       # Total read bandwidth from this memory ((Byte/Second))
system.mem_ctrls.bwRead::cpu.data           297757187                       # Total read bandwidth from this memory ((Byte/Second))
system.mem_ctrls.bwRead::total              331943359                       # Total read bandwidth from this memory ((Byte/Second))
system.mem_ctrls.bwInstRead::cpu.inst        34186173                       # Instruction read bandwidth from this memory ((Byte/Second))
system.mem_ctrls.bwInstRead::total           34186173                       # Instruction read bandwidth from this memory ((Byte/Second))
system.mem_ctrls.bwWrite::writebacks           347787                       # Write bandwidth from this memory ((Byte/Second))
system.mem_ctrls.bwWrite::total                347787                       # Write bandwidth from this memory ((Byte/Second))
system.mem_ctrls.bwTotal::writebacks           347787                       # Total bandwidth to/from this memory ((Byte/Second))
system.mem_ctrls.bwTotal::cpu.inst           34186173                       # Total bandwidth to/from this memory ((Byte/Second))
system.mem_ctrls.bwTotal::cpu.data          297757187                       # Total bandwidth to/from this memory ((Byte/Second))
system.mem_ctrls.bwTotal::total             332291146                       # Total bandwidth to/from this memory ((Byte/Second))
system.mem_ctrls.power_state.pwrStateResidencyTicks::UNDEFINED   4968558500                       # Cumulative time (in ticks) in various power states (Tick)
system.membus.transDist::ReadResp               13565                       # Transaction distribution (Count)
system.membus.transDist::WritebackDirty            27                       # Transaction distribution (Count)
system.membus.transDist::CleanEvict                90                       # Transaction distribution (Count)
system.membus.transDist::ReadExReq              12204                       # Transaction distribution (Count)
system.membus.transDist::ReadExResp             12204                       # Transaction distribution (Count)
system.membus.transDist::ReadSharedReq          13566                       # Transaction distribution (Count)
system.membus.pktCount_system.l2.mem_side_port::system.mem_ctrls.port        51656                       # Packet count per connected requestor and responder (Count)
system.membus.pktCount_system.l2.mem_side_port::total        51656                       # Packet count per connected requestor and responder (Count)
system.membus.pktCount::total                   51656                       # Packet count per connected requestor and responder (Count)
system.membus.pktSize_system.l2.mem_side_port::system.mem_ctrls.port      1650944                       # Cumulative packet size per connected requestor and responder (Byte)
system.membus.pktSize_system.l2.mem_side_port::total      1650944                       # Cumulative packet size per connected requestor and responder (Byte)
system.membus.pktSize::total                  1650944                       # Cumulative packet size per connected requestor and responder (Byte)
system.membus.snoops                                0                       # Total snoops (Count)
system.membus.snoopTraffic                          0                       # Total snoop traffic (Byte)
system.membus.snoopFanout::samples              27114                       # Request fanout histogram (Count)
system.membus.snoopFanout::mean                     0                       # Request fanout histogram (Count)
system.membus.snoopFanout::stdev                    0                       # Request fanout histogram (Count)
system.membus.snoopFanout::underflows               0      0.00%      0.00% # Request fanout histogram (Count)
system.membus.snoopFanout::0                    27114    100.00%    100.00% # Request fanout histogram (Count)
system.membus.snoopFanout::1                        0      0.00%    100.00% # Request fanout histogram (Count)
system.membus.snoopFanout::overflows                0      0.00%    100.00% # Request fanout histogram (Count)
system.membus.snoopFanout::min_value                0                       # Request fanout histogram (Count)
system.membus.snoopFanout::max_value                0                       # Request fanout histogram (Count)
system.membus.snoopFanout::total                27114                       # Request fanout histogram (Count)
system.membus.power_state.pwrStateResidencyTicks::UNDEFINED   4968558500                       # Cumulative time (in ticks) in various power states (Tick)
system.membus.reqLayer2.occupancy            33339996                       # Layer occupancy (ticks) (Tick)
system.membus.reqLayer2.utilization               0.0                       # Layer utilization (Ratio)
system.membus.respLayer1.occupancy          128845000                       # Layer occupancy (ticks) (Tick)
system.membus.respLayer1.utilization              0.0                       # Layer utilization (Ratio)
system.membus.snoop_filter.totRequests          27231                       # Total number of requests made to the snoop filter. (Count)
system.membus.snoop_filter.hitSingleRequests          117                       # Number of requests hitting in the snoop filter with a single holder of the requested data. (Count)
system.membus.snoop_filter.hitMultiRequests            0                       # Number of requests hitting in the snoop filter with multiple (>1) holders of the requested data. (Count)
system.membus.snoop_filter.totSnoops                0                       # Total number of snoops made to the snoop filter. (Count)
system.membus.snoop_filter.hitSingleSnoops            0                       # Number of snoops hitting in the snoop filter with a single holder of the requested data. (Count)
system.membus.snoop_filter.hitMultiSnoops            0                       # Number of snoops hitting in the snoop filter with multiple (>1) holders of the requested data. (Count)
system.tol2bus.transDist::ReadResp              68770                       # Transaction distribution (Count)
system.tol2bus.transDist::WritebackDirty        74298                       # Transaction distribution (Count)
system.tol2bus.transDist::WritebackClean         3168                       # Transaction distribution (Count)
system.tol2bus.transDist::CleanEvict            14096                       # Transaction distribution (Count)
system.tol2bus.transDist::UpgradeReq                2                       # Transaction distribution (Count)
system.tol2bus.transDist::UpgradeResp               2                       # Transaction distribution (Count)
system.tol2bus.transDist::ReadExReq             24204                       # Transaction distribution (Count)
system.tol2bus.transDist::ReadExResp            24204                       # Transaction distribution (Count)
system.tol2bus.transDist::ReadCleanReq           3682                       # Transaction distribution (Count)
system.tol2bus.transDist::ReadSharedReq         65089                       # Transaction distribution (Count)
system.tol2bus.pktCount_system.cpu.icache.mem_side_port::system.l2.cpu_side_port        10530                       # Packet count per connected requestor and responder (Count)
system.tol2bus.pktCount_system.cpu.dcache.mem_side_port::system.l2.cpu_side_port       266859                       # Packet count per connected requestor and responder (Count)
system.tol2bus.pktCount::total                 277389                       # Packet count per connected requestor and responder (Count)
system.tol2bus.pktSize_system.cpu.icache.mem_side_port::system.l2.cpu_side_port       438272                       # Cumulative packet size per connected requestor and responder (Byte)
system.tol2bus.pktSize_system.cpu.dcache.mem_side_port::system.l2.cpu_side_port     10468096                       # Cumulative packet size per connected requestor and responder (Byte)
system.tol2bus.pktSize::total                10906368                       # Cumulative packet size per connected requestor and responder (Byte)
system.tol2bus.snoops                             126                       # Total snoops (Count)
system.tol2bus.snoopTraffic                      1792                       # Total snoop traffic (Byte)
system.tol2bus.snoopFanout::samples             93102                       # Request fanout histogram (Count)
system.tol2bus.snoopFanout::mean             0.000365                       # Request fanout histogram (Count)
system.tol2bus.snoopFanout::stdev            0.019107                       # Request fanout histogram (Count)
system.tol2bus.snoopFanout::underflows              0      0.00%      0.00% # Request fanout histogram (Count)
system.tol2bus.snoopFanout::0                   93068     99.96%     99.96% # Request fanout histogram (Count)
system.tol2bus.snoopFanout::1                      34      0.04%    100.00% # Request fanout histogram (Count)
system.tol2bus.snoopFanout::2                       0      0.00%    100.00% # Request fanout histogram (Count)
system.tol2bus.snoopFanout::3                       0      0.00%    100.00% # Request fanout histogram (Count)
system.tol2bus.snoopFanout::4                       0      0.00%    100.00% # Request fanout histogram (Count)
system.tol2bus.snoopFanout::overflows               0      0.00%    100.00% # Request fanout histogram (Count)
system.tol2bus.snoopFanout::min_value               0                       # Request fanout histogram (Count)
system.tol2bus.snoopFanout::max_value               1                       # Request fanout histogram (Count)
system.tol2bus.snoopFanout::total               93102                       # Request fanout histogram (Count)
system.tol2bus.power_state.pwrStateResidencyTicks::UNDEFINED   4968558500                       # Cumulative time (in ticks) in various power states (Tick)
system.tol2bus.reqLayer0.occupancy          169646000                       # Layer occupancy (ticks) (Tick)
system.tol2bus.reqLayer0.utilization              0.0                       # Layer utilization (Ratio)
system.tol2bus.respLayer0.occupancy           5526490                       # Layer occupancy (ticks) (Tick)
system.tol2bus.respLayer0.utilization             0.0                       # Layer utilization (Ratio)
system.tol2bus.respLayer1.occupancy         133940500                       # Layer occupancy (ticks) (Tick)
system.tol2bus.respLayer1.utilization             0.0                       # Layer utilization (Ratio)
system.tol2bus.snoop_filter.totRequests        184414                       # Total number of requests made to the snoop filter. (Count)
system.tol2bus.snoop_filter.hitSingleRequests        91441                       # Number of requests hitting in the snoop filter with a single holder of the requested data. (Count)
system.tol2bus.snoop_filter.hitMultiRequests           22                       # Number of requests hitting in the snoop filter with multiple (>1) holders of the requested data. (Count)
system.tol2bus.snoop_filter.totSnoops               8                       # Total number of snoops made to the snoop filter. (Count)
system.tol2bus.snoop_filter.hitSingleSnoops            8                       # Number of snoops hitting in the snoop filter with a single holder of the requested data. (Count)
system.tol2bus.snoop_filter.hitMultiSnoops            0                       # Number of snoops hitting in the snoop filter with multiple (>1) holders of the requested data. (Count)
system.voltage_domain.voltage                       1                       # Voltage in Volts (Volt)
system.workload.inst.arm                            0                       # number of arm instructions executed (Count)
system.workload.inst.quiesce                        0                       # number of quiesce instructions executed (Count)

---------- End Simulation Statistics   ----------
