
---------- Begin Simulation Statistics ----------
simSeconds                               18446744.073710                       # Number of seconds simulated (Second)
simTicks                                 18446744073709551616                       # Number of ticks simulated (Tick)
finalTick                                18446744073709551616                       # Number of ticks from beginning of simulation (restored from checkpoints and never reset) (Tick)
simFreq                                  1000000000000                       # The number of ticks per simulated second ((Tick/Second))
hostSeconds                                     19.27                       # Real time elapsed on the host (Second)
hostTickRate                             957378916172056448                       # The number of ticks simulated per host second (ticks/s) ((Tick/Second))
hostMemory                                    8577144                       # Number of bytes of host memory used (Byte)
simInsts                                      2221725                       # Number of instructions simulated (Count)
simOps                                        3887312                       # Number of ops (including micro ops) simulated (Count)
hostInstRate                                   115306                       # Simulator instruction rate (inst/s) ((Count/Second))
hostOpRate                                     201748                       # Simulator op (including micro ops) rate (op/s) ((Count/Second))
system.clk_domain.clock                          1000                       # Clock period in ticks (Tick)
system.cpu.numCycles                          2589470                       # Number of cpu cycles simulated (Cycle)
system.cpu.numWorkItemsStarted                      0                       # Number of work items this cpu started (Count)
system.cpu.numWorkItemsCompleted                    0                       # Number of work items this cpu completed (Count)
system.cpu.instsAdded                         5035458                       # Number of instructions added to the IQ (excludes non-spec) (Count)
system.cpu.nonSpecInstsAdded                      976                       # Number of non-speculative instructions added to the IQ (Count)
system.cpu.instsIssued                        4616117                       # Number of instructions issued (Count)
system.cpu.squashedInstsIssued                   3238                       # Number of squashed instructions issued (Count)
system.cpu.squashedInstsExamined              1149121                       # Number of squashed instructions iterated over during squash; mainly for profiling (Count)
system.cpu.squashedOperandsExamined           1757093                       # Number of squashed operands that are examined and possibly removed from graph (Count)
system.cpu.squashedNonSpecRemoved                 126                       # Number of squashed non-spec instructions that were removed (Count)
system.cpu.numIssuedDist::samples             2480569                       # Number of insts issued each cycle (Count)
system.cpu.numIssuedDist::mean               1.860911                       # Number of insts issued each cycle (Count)
system.cpu.numIssuedDist::stdev              2.204167                       # Number of insts issued each cycle (Count)
system.cpu.numIssuedDist::underflows                0      0.00%      0.00% # Number of insts issued each cycle (Count)
system.cpu.numIssuedDist::0                   1131275     45.61%     45.61% # Number of insts issued each cycle (Count)
system.cpu.numIssuedDist::1                    244630      9.86%     55.47% # Number of insts issued each cycle (Count)
system.cpu.numIssuedDist::2                    267238     10.77%     66.24% # Number of insts issued each cycle (Count)
system.cpu.numIssuedDist::3                    242670      9.78%     76.02% # Number of insts issued each cycle (Count)
system.cpu.numIssuedDist::4                    216459      8.73%     84.75% # Number of insts issued each cycle (Count)
system.cpu.numIssuedDist::5                    163709      6.60%     91.35% # Number of insts issued each cycle (Count)
system.cpu.numIssuedDist::6                    117799      4.75%     96.10% # Number of insts issued each cycle (Count)
system.cpu.numIssuedDist::7                     56486      2.28%     98.38% # Number of insts issued each cycle (Count)
system.cpu.numIssuedDist::8                     40303      1.62%    100.00% # Number of insts issued each cycle (Count)
system.cpu.numIssuedDist::overflows                 0      0.00%    100.00% # Number of insts issued each cycle (Count)
system.cpu.numIssuedDist::min_value                 0                       # Number of insts issued each cycle (Count)
system.cpu.numIssuedDist::max_value                 8                       # Number of insts issued each cycle (Count)
system.cpu.numIssuedDist::total               2480569                       # Number of insts issued each cycle (Count)
system.cpu.statFuBusy::No_OpClass                   0      0.00%      0.00% # attempts to use FU when none available (Count)
system.cpu.statFuBusy::IntAlu                   46972     65.14%     65.14% # attempts to use FU when none available (Count)
system.cpu.statFuBusy::IntMult                      0      0.00%     65.14% # attempts to use FU when none available (Count)
system.cpu.statFuBusy::IntDiv                       0      0.00%     65.14% # attempts to use FU when none available (Count)
system.cpu.statFuBusy::FloatAdd                     0      0.00%     65.14% # attempts to use FU when none available (Count)
system.cpu.statFuBusy::FloatCmp                     0      0.00%     65.14% # attempts to use FU when none available (Count)
system.cpu.statFuBusy::FloatCvt                     0      0.00%     65.14% # attempts to use FU when none available (Count)
system.cpu.statFuBusy::FloatMult                    0      0.00%     65.14% # attempts to use FU when none available (Count)
system.cpu.statFuBusy::FloatMultAcc                 0      0.00%     65.14% # attempts to use FU when none available (Count)
system.cpu.statFuBusy::FloatDiv                     0      0.00%     65.14% # attempts to use FU when none available (Count)
system.cpu.statFuBusy::FloatMisc                    0      0.00%     65.14% # attempts to use FU when none available (Count)
system.cpu.statFuBusy::FloatSqrt                    0      0.00%     65.14% # attempts to use FU when none available (Count)
system.cpu.statFuBusy::SimdAdd                      6      0.01%     65.15% # attempts to use FU when none available (Count)
system.cpu.statFuBusy::SimdAddAcc                   0      0.00%     65.15% # attempts to use FU when none available (Count)
system.cpu.statFuBusy::SimdAlu                    141      0.20%     65.35% # attempts to use FU when none available (Count)
system.cpu.statFuBusy::SimdCmp                      0      0.00%     65.35% # attempts to use FU when none available (Count)
system.cpu.statFuBusy::SimdCvt                    996      1.38%     66.73% # attempts to use FU when none available (Count)
system.cpu.statFuBusy::SimdMisc                    14      0.02%     66.75% # attempts to use FU when none available (Count)
system.cpu.statFuBusy::SimdMult                     0      0.00%     66.75% # attempts to use FU when none available (Count)
system.cpu.statFuBusy::SimdMultAcc                  0      0.00%     66.75% # attempts to use FU when none available (Count)
system.cpu.statFuBusy::SimdShift                   36      0.05%     66.80% # attempts to use FU when none available (Count)
system.cpu.statFuBusy::SimdShiftAcc                 0      0.00%     66.80% # attempts to use FU when none available (Count)
system.cpu.statFuBusy::SimdDiv                      0      0.00%     66.80% # attempts to use FU when none available (Count)
system.cpu.statFuBusy::SimdSqrt                     0      0.00%     66.80% # attempts to use FU when none available (Count)
system.cpu.statFuBusy::SimdFloatAdd                 0      0.00%     66.80% # attempts to use FU when none available (Count)
system.cpu.statFuBusy::SimdFloatAlu                 0      0.00%     66.80% # attempts to use FU when none available (Count)
system.cpu.statFuBusy::SimdFloatCmp                 0      0.00%     66.80% # attempts to use FU when none available (Count)
system.cpu.statFuBusy::SimdFloatCvt                 0      0.00%     66.80% # attempts to use FU when none available (Count)
system.cpu.statFuBusy::SimdFloatDiv                 0      0.00%     66.80% # attempts to use FU when none available (Count)
system.cpu.statFuBusy::SimdFloatMisc                0      0.00%     66.80% # attempts to use FU when none available (Count)
system.cpu.statFuBusy::SimdFloatMult                0      0.00%     66.80% # attempts to use FU when none available (Count)
system.cpu.statFuBusy::SimdFloatMultAcc             0      0.00%     66.80% # attempts to use FU when none available (Count)
system.cpu.statFuBusy::SimdFloatSqrt                0      0.00%     66.80% # attempts to use FU when none available (Count)
system.cpu.statFuBusy::SimdReduceAdd                0      0.00%     66.80% # attempts to use FU when none available (Count)
system.cpu.statFuBusy::SimdReduceAlu                0      0.00%     66.80% # attempts to use FU when none available (Count)
system.cpu.statFuBusy::SimdReduceCmp                0      0.00%     66.80% # attempts to use FU when none available (Count)
system.cpu.statFuBusy::SimdFloatReduceAdd            0      0.00%     66.80% # attempts to use FU when none available (Count)
system.cpu.statFuBusy::SimdFloatReduceCmp            0      0.00%     66.80% # attempts to use FU when none available (Count)
system.cpu.statFuBusy::SimdAes                      0      0.00%     66.80% # attempts to use FU when none available (Count)
system.cpu.statFuBusy::SimdAesMix                   0      0.00%     66.80% # attempts to use FU when none available (Count)
system.cpu.statFuBusy::SimdSha1Hash                 0      0.00%     66.80% # attempts to use FU when none available (Count)
system.cpu.statFuBusy::SimdSha1Hash2                0      0.00%     66.80% # attempts to use FU when none available (Count)
system.cpu.statFuBusy::SimdSha256Hash               0      0.00%     66.80% # attempts to use FU when none available (Count)
system.cpu.statFuBusy::SimdSha256Hash2              0      0.00%     66.80% # attempts to use FU when none available (Count)
system.cpu.statFuBusy::SimdShaSigma2                0      0.00%     66.80% # attempts to use FU when none available (Count)
system.cpu.statFuBusy::SimdShaSigma3                0      0.00%     66.80% # attempts to use FU when none available (Count)
system.cpu.statFuBusy::SimdPredAlu                  0      0.00%     66.80% # attempts to use FU when none available (Count)
system.cpu.statFuBusy::MemRead                  14987     20.78%     87.58% # attempts to use FU when none available (Count)
system.cpu.statFuBusy::MemWrite                  8213     11.39%     98.97% # attempts to use FU when none available (Count)
system.cpu.statFuBusy::FloatMemRead               478      0.66%     99.64% # attempts to use FU when none available (Count)
system.cpu.statFuBusy::FloatMemWrite              263      0.36%    100.00% # attempts to use FU when none available (Count)
system.cpu.statFuBusy::IprAccess                    0      0.00%    100.00% # attempts to use FU when none available (Count)
system.cpu.statFuBusy::InstPrefetch                 0      0.00%    100.00% # attempts to use FU when none available (Count)
system.cpu.statIssuedInstType_0::No_OpClass        28027      0.61%      0.61% # Number of instructions issued per FU type, per thread (Count)
system.cpu.statIssuedInstType_0::IntAlu       3592984     77.84%     78.44% # Number of instructions issued per FU type, per thread (Count)
system.cpu.statIssuedInstType_0::IntMult           47      0.00%     78.44% # Number of instructions issued per FU type, per thread (Count)
system.cpu.statIssuedInstType_0::IntDiv         42887      0.93%     79.37% # Number of instructions issued per FU type, per thread (Count)
system.cpu.statIssuedInstType_0::FloatAdd         7909      0.17%     79.54% # Number of instructions issued per FU type, per thread (Count)
system.cpu.statIssuedInstType_0::FloatCmp            0      0.00%     79.54% # Number of instructions issued per FU type, per thread (Count)
system.cpu.statIssuedInstType_0::FloatCvt         1604      0.03%     79.58% # Number of instructions issued per FU type, per thread (Count)
system.cpu.statIssuedInstType_0::FloatMult            0      0.00%     79.58% # Number of instructions issued per FU type, per thread (Count)
system.cpu.statIssuedInstType_0::FloatMultAcc            0      0.00%     79.58% # Number of instructions issued per FU type, per thread (Count)
system.cpu.statIssuedInstType_0::FloatDiv            0      0.00%     79.58% # Number of instructions issued per FU type, per thread (Count)
system.cpu.statIssuedInstType_0::FloatMisc            0      0.00%     79.58% # Number of instructions issued per FU type, per thread (Count)
system.cpu.statIssuedInstType_0::FloatSqrt            0      0.00%     79.58% # Number of instructions issued per FU type, per thread (Count)
system.cpu.statIssuedInstType_0::SimdAdd         7730      0.17%     79.75% # Number of instructions issued per FU type, per thread (Count)
system.cpu.statIssuedInstType_0::SimdAddAcc            0      0.00%     79.75% # Number of instructions issued per FU type, per thread (Count)
system.cpu.statIssuedInstType_0::SimdAlu        15559      0.34%     80.08% # Number of instructions issued per FU type, per thread (Count)
system.cpu.statIssuedInstType_0::SimdCmp            8      0.00%     80.08% # Number of instructions issued per FU type, per thread (Count)
system.cpu.statIssuedInstType_0::SimdCvt        16676      0.36%     80.44% # Number of instructions issued per FU type, per thread (Count)
system.cpu.statIssuedInstType_0::SimdMisc        14652      0.32%     80.76% # Number of instructions issued per FU type, per thread (Count)
system.cpu.statIssuedInstType_0::SimdMult            0      0.00%     80.76% # Number of instructions issued per FU type, per thread (Count)
system.cpu.statIssuedInstType_0::SimdMultAcc            0      0.00%     80.76% # Number of instructions issued per FU type, per thread (Count)
system.cpu.statIssuedInstType_0::SimdShift         2261      0.05%     80.81% # Number of instructions issued per FU type, per thread (Count)
system.cpu.statIssuedInstType_0::SimdShiftAcc            0      0.00%     80.81% # Number of instructions issued per FU type, per thread (Count)
system.cpu.statIssuedInstType_0::SimdDiv            0      0.00%     80.81% # Number of instructions issued per FU type, per thread (Count)
system.cpu.statIssuedInstType_0::SimdSqrt            0      0.00%     80.81% # Number of instructions issued per FU type, per thread (Count)
system.cpu.statIssuedInstType_0::SimdFloatAdd            0      0.00%     80.81% # Number of instructions issued per FU type, per thread (Count)
system.cpu.statIssuedInstType_0::SimdFloatAlu            0      0.00%     80.81% # Number of instructions issued per FU type, per thread (Count)
system.cpu.statIssuedInstType_0::SimdFloatCmp            0      0.00%     80.81% # Number of instructions issued per FU type, per thread (Count)
system.cpu.statIssuedInstType_0::SimdFloatCvt            0      0.00%     80.81% # Number of instructions issued per FU type, per thread (Count)
system.cpu.statIssuedInstType_0::SimdFloatDiv            0      0.00%     80.81% # Number of instructions issued per FU type, per thread (Count)
system.cpu.statIssuedInstType_0::SimdFloatMisc            0      0.00%     80.81% # Number of instructions issued per FU type, per thread (Count)
system.cpu.statIssuedInstType_0::SimdFloatMult            0      0.00%     80.81% # Number of instructions issued per FU type, per thread (Count)
system.cpu.statIssuedInstType_0::SimdFloatMultAcc            0      0.00%     80.81% # Number of instructions issued per FU type, per thread (Count)
system.cpu.statIssuedInstType_0::SimdFloatSqrt            0      0.00%     80.81% # Number of instructions issued per FU type, per thread (Count)
system.cpu.statIssuedInstType_0::SimdReduceAdd            0      0.00%     80.81% # Number of instructions issued per FU type, per thread (Count)
system.cpu.statIssuedInstType_0::SimdReduceAlu            0      0.00%     80.81% # Number of instructions issued per FU type, per thread (Count)
system.cpu.statIssuedInstType_0::SimdReduceCmp            0      0.00%     80.81% # Number of instructions issued per FU type, per thread (Count)
system.cpu.statIssuedInstType_0::SimdFloatReduceAdd            0      0.00%     80.81% # Number of instructions issued per FU type, per thread (Count)
system.cpu.statIssuedInstType_0::SimdFloatReduceCmp            0      0.00%     80.81% # Number of instructions issued per FU type, per thread (Count)
system.cpu.statIssuedInstType_0::SimdAes            0      0.00%     80.81% # Number of instructions issued per FU type, per thread (Count)
system.cpu.statIssuedInstType_0::SimdAesMix            0      0.00%     80.81% # Number of instructions issued per FU type, per thread (Count)
system.cpu.statIssuedInstType_0::SimdSha1Hash            0      0.00%     80.81% # Number of instructions issued per FU type, per thread (Count)
system.cpu.statIssuedInstType_0::SimdSha1Hash2            0      0.00%     80.81% # Number of instructions issued per FU type, per thread (Count)
system.cpu.statIssuedInstType_0::SimdSha256Hash            0      0.00%     80.81% # Number of instructions issued per FU type, per thread (Count)
system.cpu.statIssuedInstType_0::SimdSha256Hash2            0      0.00%     80.81% # Number of instructions issued per FU type, per thread (Count)
system.cpu.statIssuedInstType_0::SimdShaSigma2            0      0.00%     80.81% # Number of instructions issued per FU type, per thread (Count)
system.cpu.statIssuedInstType_0::SimdShaSigma3            0      0.00%     80.81% # Number of instructions issued per FU type, per thread (Count)
system.cpu.statIssuedInstType_0::SimdPredAlu            0      0.00%     80.81% # Number of instructions issued per FU type, per thread (Count)
system.cpu.statIssuedInstType_0::MemRead       617723     13.38%     94.19% # Number of instructions issued per FU type, per thread (Count)
system.cpu.statIssuedInstType_0::MemWrite       228980      4.96%     99.15% # Number of instructions issued per FU type, per thread (Count)
system.cpu.statIssuedInstType_0::FloatMemRead        23644      0.51%     99.67% # Number of instructions issued per FU type, per thread (Count)
system.cpu.statIssuedInstType_0::FloatMemWrite        15426      0.33%    100.00% # Number of instructions issued per FU type, per thread (Count)
system.cpu.statIssuedInstType_0::IprAccess            0      0.00%    100.00% # Number of instructions issued per FU type, per thread (Count)
system.cpu.statIssuedInstType_0::InstPrefetch            0      0.00%    100.00% # Number of instructions issued per FU type, per thread (Count)
system.cpu.statIssuedInstType_0::total        4616117                       # Number of instructions issued per FU type, per thread (Count)
system.cpu.issueRate                         1.782649                       # Inst issue rate ((Count/Cycle))
system.cpu.fuBusy                               72106                       # FU busy when requested (Count)
system.cpu.fuBusyRate                        0.015620                       # FU busy rate (busy events/executed inst) ((Count/Count))
system.cpu.intInstQueueReads                 11567535                       # Number of integer instruction queue reads (Count)
system.cpu.intInstQueueWrites                 6030722                       # Number of integer instruction queue writes (Count)
system.cpu.intInstQueueWakeupAccesses         4445238                       # Number of integer instruction queue wakeup accesses (Count)
system.cpu.fpInstQueueReads                    220612                       # Number of floating instruction queue reads (Count)
system.cpu.fpInstQueueWrites                   155044                       # Number of floating instruction queue writes (Count)
system.cpu.fpInstQueueWakeupAccesses           105553                       # Number of floating instruction queue wakeup accesses (Count)
system.cpu.vecInstQueueReads                        0                       # Number of vector instruction queue reads (Count)
system.cpu.vecInstQueueWrites                       0                       # Number of vector instruction queue writes (Count)
system.cpu.vecInstQueueWakeupAccesses               0                       # Number of vector instruction queue wakeup accesses (Count)
system.cpu.intAluAccesses                     4549025                       # Number of integer alu accesses (Count)
system.cpu.fpAluAccesses                       111171                       # Number of floating point alu accesses (Count)
system.cpu.vecAluAccesses                           0                       # Number of vector alu accesses (Count)
system.cpu.numInsts                           4587324                       # Number of executed instructions (Count)
system.cpu.numLoadInsts                        634265                       # Number of load instructions executed (Count)
system.cpu.numSquashedInsts                     28793                       # Number of squashed instructions skipped in execute (Count)
system.cpu.numSwp                                   0                       # Number of swp insts executed (Count)
system.cpu.numNop                                   0                       # Number of nop insts executed (Count)
system.cpu.numRefs                             876349                       # Number of memory reference insts executed (Count)
system.cpu.numBranches                         403780                       # Number of branches executed (Count)
system.cpu.numStoreInsts                       242084                       # Number of stores executed (Count)
system.cpu.numRate                           1.771530                       # Inst execution rate ((Count/Cycle))
system.cpu.timesIdled                            1746                       # Number of times that the entire CPU went into an idle state and unscheduled itself (Count)
system.cpu.idleCycles                          108901                       # Total number of cycles that the CPU has spent unscheduled due to idling (Cycle)
system.cpu.committedInsts                     2221725                       # Number of Instructions Simulated (Count)
system.cpu.committedOps                       3887312                       # Number of Ops (including micro ops) Simulated (Count)
system.cpu.cpi                               1.165522                       # CPI: Cycles Per Instruction ((Cycle/Count))
system.cpu.totalCpi                          1.165522                       # CPI: Total CPI of All Threads ((Cycle/Count))
system.cpu.ipc                               0.857984                       # IPC: Instructions Per Cycle ((Count/Cycle))
system.cpu.totalIpc                          0.857984                       # IPC: Total IPC of All Threads ((Count/Cycle))
system.cpu.intRegfileReads                    7249267                       # Number of integer regfile reads (Count)
system.cpu.intRegfileWrites                   3884106                       # Number of integer regfile writes (Count)
system.cpu.fpRegfileReads                      147251                       # Number of floating regfile reads (Count)
system.cpu.fpRegfileWrites                      81024                       # Number of floating regfile writes (Count)
system.cpu.ccRegfileReads                     2435250                       # number of cc regfile reads (Count)
system.cpu.ccRegfileWrites                    2003882                       # number of cc regfile writes (Count)
system.cpu.miscRegfileReads                   1729599                       # number of misc regfile reads (Count)
system.cpu.miscRegfileWrites                      729                       # number of misc regfile writes (Count)
system.cpu.MemDepUnit__0.insertedLoads         667120                       # Number of loads inserted to the mem dependence unit. (Count)
system.cpu.MemDepUnit__0.insertedStores        260491                       # Number of stores inserted to the mem dependence unit. (Count)
system.cpu.MemDepUnit__0.conflictingLoads        28012                       # Number of conflicting loads. (Count)
system.cpu.MemDepUnit__0.conflictingStores        21596                       # Number of conflicting stores. (Count)
system.cpu.MemDepUnit__1.insertedLoads              0                       # Number of loads inserted to the mem dependence unit. (Count)
system.cpu.MemDepUnit__1.insertedStores             0                       # Number of stores inserted to the mem dependence unit. (Count)
system.cpu.MemDepUnit__1.conflictingLoads            0                       # Number of conflicting loads. (Count)
system.cpu.MemDepUnit__1.conflictingStores            0                       # Number of conflicting stores. (Count)
system.cpu.MemDepUnit__2.insertedLoads              0                       # Number of loads inserted to the mem dependence unit. (Count)
system.cpu.MemDepUnit__2.insertedStores             0                       # Number of stores inserted to the mem dependence unit. (Count)
system.cpu.MemDepUnit__2.conflictingLoads            0                       # Number of conflicting loads. (Count)
system.cpu.MemDepUnit__2.conflictingStores            0                       # Number of conflicting stores. (Count)
system.cpu.MemDepUnit__3.insertedLoads              0                       # Number of loads inserted to the mem dependence unit. (Count)
system.cpu.MemDepUnit__3.insertedStores             0                       # Number of stores inserted to the mem dependence unit. (Count)
system.cpu.MemDepUnit__3.conflictingLoads            0                       # Number of conflicting loads. (Count)
system.cpu.MemDepUnit__3.conflictingStores            0                       # Number of conflicting stores. (Count)
system.cpu.branchPred.lookups                  523734                       # Number of BP lookups (Count)
system.cpu.branchPred.condPredicted            449288                       # Number of conditional branches predicted (Count)
system.cpu.branchPred.condIncorrect             16805                       # Number of conditional branches incorrect (Count)
system.cpu.branchPred.BTBLookups               273641                       # Number of BTB lookups (Count)
system.cpu.branchPred.BTBHits                  270241                       # Number of BTB hits (Count)
system.cpu.branchPred.BTBHitRatio            0.987575                       # BTB Hit Ratio (Ratio)
system.cpu.branchPred.RASUsed                   14716                       # Number of times the RAS was used to get a target. (Count)
system.cpu.branchPred.RASIncorrect                 16                       # Number of incorrect RAS predictions. (Count)
system.cpu.branchPred.indirectLookups           12112                       # Number of indirect predictor lookups. (Count)
system.cpu.branchPred.indirectHits               5200                       # Number of indirect target hits. (Count)
system.cpu.branchPred.indirectMisses             6912                       # Number of indirect misses. (Count)
system.cpu.branchPred.indirectMispredicted         1318                       # Number of mispredicted indirect branches. (Count)
system.cpu.commit.commitSquashedInsts         1146256                       # The number of squashed insts skipped by commit (Count)
system.cpu.commit.commitNonSpecStalls             850                       # The number of times commit has been forced to stall to communicate backwards (Count)
system.cpu.commit.branchMispredicts             16052                       # The number of times a branch was mispredicted (Count)
system.cpu.commit.numCommittedDist::samples      2324955                       # Number of insts commited each cycle (Count)
system.cpu.commit.numCommittedDist::mean     1.671995                       # Number of insts commited each cycle (Count)
system.cpu.commit.numCommittedDist::stdev     2.589128                       # Number of insts commited each cycle (Count)
system.cpu.commit.numCommittedDist::underflows            0      0.00%      0.00% # Number of insts commited each cycle (Count)
system.cpu.commit.numCommittedDist::0         1339261     57.60%     57.60% # Number of insts commited each cycle (Count)
system.cpu.commit.numCommittedDist::1          246314     10.59%     68.20% # Number of insts commited each cycle (Count)
system.cpu.commit.numCommittedDist::2           83343      3.58%     71.78% # Number of insts commited each cycle (Count)
system.cpu.commit.numCommittedDist::3          254359     10.94%     82.72% # Number of insts commited each cycle (Count)
system.cpu.commit.numCommittedDist::4           29307      1.26%     83.98% # Number of insts commited each cycle (Count)
system.cpu.commit.numCommittedDist::5          107585      4.63%     88.61% # Number of insts commited each cycle (Count)
system.cpu.commit.numCommittedDist::6           22213      0.96%     89.57% # Number of insts commited each cycle (Count)
system.cpu.commit.numCommittedDist::7           17780      0.76%     90.33% # Number of insts commited each cycle (Count)
system.cpu.commit.numCommittedDist::8          224793      9.67%    100.00% # Number of insts commited each cycle (Count)
system.cpu.commit.numCommittedDist::overflows            0      0.00%    100.00% # Number of insts commited each cycle (Count)
system.cpu.commit.numCommittedDist::min_value            0                       # Number of insts commited each cycle (Count)
system.cpu.commit.numCommittedDist::max_value            8                       # Number of insts commited each cycle (Count)
system.cpu.commit.numCommittedDist::total      2324955                       # Number of insts commited each cycle (Count)
system.cpu.commit.instsCommitted              2221725                       # Number of instructions committed (Count)
system.cpu.commit.opsCommitted                3887312                       # Number of ops (including micro ops) committed (Count)
system.cpu.commit.memRefs                      721498                       # Number of memory references committed (Count)
system.cpu.commit.loads                        522282                       # Number of loads committed (Count)
system.cpu.commit.amos                              0                       # Number of atomic instructions committed (Count)
system.cpu.commit.membars                          80                       # Number of memory barriers committed (Count)
system.cpu.commit.branches                     366730                       # Number of branches committed (Count)
system.cpu.commit.vectorInstructions                0                       # Number of committed Vector instructions. (Count)
system.cpu.commit.floating                      89532                       # Number of committed floating point instructions. (Count)
system.cpu.commit.integer                     3813283                       # Number of committed integer instructions. (Count)
system.cpu.commit.functionCalls                 11579                       # Number of function calls committed. (Count)
system.cpu.commit.committedInstType_0::No_OpClass        14848      0.38%      0.38% # Class of committed instruction (Count)
system.cpu.commit.committedInstType_0::IntAlu      3056096     78.62%     79.00% # Class of committed instruction (Count)
system.cpu.commit.committedInstType_0::IntMult           33      0.00%     79.00% # Class of committed instruction (Count)
system.cpu.commit.committedInstType_0::IntDiv        39870      1.03%     80.03% # Class of committed instruction (Count)
system.cpu.commit.committedInstType_0::FloatAdd         5671      0.15%     80.17% # Class of committed instruction (Count)
system.cpu.commit.committedInstType_0::FloatCmp            0      0.00%     80.17% # Class of committed instruction (Count)
system.cpu.commit.committedInstType_0::FloatCvt         1296      0.03%     80.20% # Class of committed instruction (Count)
system.cpu.commit.committedInstType_0::FloatMult            0      0.00%     80.20% # Class of committed instruction (Count)
system.cpu.commit.committedInstType_0::FloatMultAcc            0      0.00%     80.20% # Class of committed instruction (Count)
system.cpu.commit.committedInstType_0::FloatDiv            0      0.00%     80.20% # Class of committed instruction (Count)
system.cpu.commit.committedInstType_0::FloatMisc            0      0.00%     80.20% # Class of committed instruction (Count)
system.cpu.commit.committedInstType_0::FloatSqrt            0      0.00%     80.20% # Class of committed instruction (Count)
system.cpu.commit.committedInstType_0::SimdAdd         7102      0.18%     80.39% # Class of committed instruction (Count)
system.cpu.commit.committedInstType_0::SimdAddAcc            0      0.00%     80.39% # Class of committed instruction (Count)
system.cpu.commit.committedInstType_0::SimdAlu        12806      0.33%     80.72% # Class of committed instruction (Count)
system.cpu.commit.committedInstType_0::SimdCmp            6      0.00%     80.72% # Class of committed instruction (Count)
system.cpu.commit.committedInstType_0::SimdCvt        14582      0.38%     81.09% # Class of committed instruction (Count)
system.cpu.commit.committedInstType_0::SimdMisc        12512      0.32%     81.41% # Class of committed instruction (Count)
system.cpu.commit.committedInstType_0::SimdMult            0      0.00%     81.41% # Class of committed instruction (Count)
system.cpu.commit.committedInstType_0::SimdMultAcc            0      0.00%     81.41% # Class of committed instruction (Count)
system.cpu.commit.committedInstType_0::SimdShift          992      0.03%     81.44% # Class of committed instruction (Count)
system.cpu.commit.committedInstType_0::SimdShiftAcc            0      0.00%     81.44% # Class of committed instruction (Count)
system.cpu.commit.committedInstType_0::SimdDiv            0      0.00%     81.44% # Class of committed instruction (Count)
system.cpu.commit.committedInstType_0::SimdSqrt            0      0.00%     81.44% # Class of committed instruction (Count)
system.cpu.commit.committedInstType_0::SimdFloatAdd            0      0.00%     81.44% # Class of committed instruction (Count)
system.cpu.commit.committedInstType_0::SimdFloatAlu            0      0.00%     81.44% # Class of committed instruction (Count)
system.cpu.commit.committedInstType_0::SimdFloatCmp            0      0.00%     81.44% # Class of committed instruction (Count)
system.cpu.commit.committedInstType_0::SimdFloatCvt            0      0.00%     81.44% # Class of committed instruction (Count)
system.cpu.commit.committedInstType_0::SimdFloatDiv            0      0.00%     81.44% # Class of committed instruction (Count)
system.cpu.commit.committedInstType_0::SimdFloatMisc            0      0.00%     81.44% # Class of committed instruction (Count)
system.cpu.commit.committedInstType_0::SimdFloatMult            0      0.00%     81.44% # Class of committed instruction (Count)
system.cpu.commit.committedInstType_0::SimdFloatMultAcc            0      0.00%     81.44% # Class of committed instruction (Count)
system.cpu.commit.committedInstType_0::SimdFloatSqrt            0      0.00%     81.44% # Class of committed instruction (Count)
system.cpu.commit.committedInstType_0::SimdReduceAdd            0      0.00%     81.44% # Class of committed instruction (Count)
system.cpu.commit.committedInstType_0::SimdReduceAlu            0      0.00%     81.44% # Class of committed instruction (Count)
system.cpu.commit.committedInstType_0::SimdReduceCmp            0      0.00%     81.44% # Class of committed instruction (Count)
system.cpu.commit.committedInstType_0::SimdFloatReduceAdd            0      0.00%     81.44% # Class of committed instruction (Count)
system.cpu.commit.committedInstType_0::SimdFloatReduceCmp            0      0.00%     81.44% # Class of committed instruction (Count)
system.cpu.commit.committedInstType_0::SimdAes            0      0.00%     81.44% # Class of committed instruction (Count)
system.cpu.commit.committedInstType_0::SimdAesMix            0      0.00%     81.44% # Class of committed instruction (Count)
system.cpu.commit.committedInstType_0::SimdSha1Hash            0      0.00%     81.44% # Class of committed instruction (Count)
system.cpu.commit.committedInstType_0::SimdSha1Hash2            0      0.00%     81.44% # Class of committed instruction (Count)
system.cpu.commit.committedInstType_0::SimdSha256Hash            0      0.00%     81.44% # Class of committed instruction (Count)
system.cpu.commit.committedInstType_0::SimdSha256Hash2            0      0.00%     81.44% # Class of committed instruction (Count)
system.cpu.commit.committedInstType_0::SimdShaSigma2            0      0.00%     81.44% # Class of committed instruction (Count)
system.cpu.commit.committedInstType_0::SimdShaSigma3            0      0.00%     81.44% # Class of committed instruction (Count)
system.cpu.commit.committedInstType_0::SimdPredAlu            0      0.00%     81.44% # Class of committed instruction (Count)
system.cpu.commit.committedInstType_0::MemRead       504266     12.97%     94.41% # Class of committed instruction (Count)
system.cpu.commit.committedInstType_0::MemWrite       185575      4.77%     99.19% # Class of committed instruction (Count)
system.cpu.commit.committedInstType_0::FloatMemRead        18016      0.46%     99.65% # Class of committed instruction (Count)
system.cpu.commit.committedInstType_0::FloatMemWrite        13641      0.35%    100.00% # Class of committed instruction (Count)
system.cpu.commit.committedInstType_0::IprAccess            0      0.00%    100.00% # Class of committed instruction (Count)
system.cpu.commit.committedInstType_0::InstPrefetch            0      0.00%    100.00% # Class of committed instruction (Count)
system.cpu.commit.committedInstType_0::total      3887312                       # Class of committed instruction (Count)
system.cpu.commit.commitEligibleSamples        224793                       # number cycles where commit BW limit reached (Cycle)
system.cpu.dcache.demandHits::cpu.data         644795                       # number of demand (read+write) hits (Count)
system.cpu.dcache.demandHits::total            644795                       # number of demand (read+write) hits (Count)
system.cpu.dcache.overallHits::cpu.data        644795                       # number of overall hits (Count)
system.cpu.dcache.overallHits::total           644795                       # number of overall hits (Count)
system.cpu.dcache.demandMisses::cpu.data       121024                       # number of demand (read+write) misses (Count)
system.cpu.dcache.demandMisses::total          121024                       # number of demand (read+write) misses (Count)
system.cpu.dcache.overallMisses::cpu.data       121024                       # number of overall misses (Count)
system.cpu.dcache.overallMisses::total         121024                       # number of overall misses (Count)
system.cpu.dcache.demandMissLatency::cpu.data   3281186412                       # number of demand (read+write) miss ticks (Tick)
system.cpu.dcache.demandMissLatency::total   3281186412                       # number of demand (read+write) miss ticks (Tick)
system.cpu.dcache.overallMissLatency::cpu.data   3281186412                       # number of overall miss ticks (Tick)
system.cpu.dcache.overallMissLatency::total   3281186412                       # number of overall miss ticks (Tick)
system.cpu.dcache.demandAccesses::cpu.data       765819                       # number of demand (read+write) accesses (Count)
system.cpu.dcache.demandAccesses::total        765819                       # number of demand (read+write) accesses (Count)
system.cpu.dcache.overallAccesses::cpu.data       765819                       # number of overall (read+write) accesses (Count)
system.cpu.dcache.overallAccesses::total       765819                       # number of overall (read+write) accesses (Count)
system.cpu.dcache.demandMissRate::cpu.data     0.158032                       # miss rate for demand accesses (Ratio)
system.cpu.dcache.demandMissRate::total      0.158032                       # miss rate for demand accesses (Ratio)
system.cpu.dcache.overallMissRate::cpu.data     0.158032                       # miss rate for overall accesses (Ratio)
system.cpu.dcache.overallMissRate::total     0.158032                       # miss rate for overall accesses (Ratio)
system.cpu.dcache.demandAvgMissLatency::cpu.data 27111.865514                       # average overall miss latency ((Cycle/Count))
system.cpu.dcache.demandAvgMissLatency::total 27111.865514                       # average overall miss latency ((Cycle/Count))
system.cpu.dcache.overallAvgMissLatency::cpu.data 27111.865514                       # average overall miss latency ((Cycle/Count))
system.cpu.dcache.overallAvgMissLatency::total 27111.865514                       # average overall miss latency ((Cycle/Count))
system.cpu.dcache.blockedCycles::no_mshrs        55110                       # number of cycles access was blocked (Cycle)
system.cpu.dcache.blockedCycles::no_targets          216                       # number of cycles access was blocked (Cycle)
system.cpu.dcache.blockedCauses::no_mshrs         4641                       # number of times access was blocked (Count)
system.cpu.dcache.blockedCauses::no_targets           37                       # number of times access was blocked (Count)
system.cpu.dcache.avgBlocked::no_mshrs      11.874596                       # average number of cycles each access was blocked ((Cycle/Count))
system.cpu.dcache.avgBlocked::no_targets     5.837838                       # average number of cycles each access was blocked ((Cycle/Count))
system.cpu.dcache.writebacks::writebacks        28790                       # number of writebacks (Count)
system.cpu.dcache.writebacks::total             28790                       # number of writebacks (Count)
system.cpu.dcache.demandMshrHits::cpu.data        68863                       # number of demand (read+write) MSHR hits (Count)
system.cpu.dcache.demandMshrHits::total         68863                       # number of demand (read+write) MSHR hits (Count)
system.cpu.dcache.overallMshrHits::cpu.data        68863                       # number of overall MSHR hits (Count)
system.cpu.dcache.overallMshrHits::total        68863                       # number of overall MSHR hits (Count)
system.cpu.dcache.demandMshrMisses::cpu.data        52161                       # number of demand (read+write) MSHR misses (Count)
system.cpu.dcache.demandMshrMisses::total        52161                       # number of demand (read+write) MSHR misses (Count)
system.cpu.dcache.overallMshrMisses::cpu.data        52161                       # number of overall MSHR misses (Count)
system.cpu.dcache.overallMshrMisses::total        52161                       # number of overall MSHR misses (Count)
system.cpu.dcache.demandMshrMissLatency::cpu.data   1160168933                       # number of demand (read+write) MSHR miss ticks (Tick)
system.cpu.dcache.demandMshrMissLatency::total   1160168933                       # number of demand (read+write) MSHR miss ticks (Tick)
system.cpu.dcache.overallMshrMissLatency::cpu.data   1160168933                       # number of overall MSHR miss ticks (Tick)
system.cpu.dcache.overallMshrMissLatency::total   1160168933                       # number of overall MSHR miss ticks (Tick)
system.cpu.dcache.demandMshrMissRate::cpu.data     0.068111                       # mshr miss ratio for demand accesses (Ratio)
system.cpu.dcache.demandMshrMissRate::total     0.068111                       # mshr miss ratio for demand accesses (Ratio)
system.cpu.dcache.overallMshrMissRate::cpu.data     0.068111                       # mshr miss ratio for overall accesses (Ratio)
system.cpu.dcache.overallMshrMissRate::total     0.068111                       # mshr miss ratio for overall accesses (Ratio)
system.cpu.dcache.demandAvgMshrMissLatency::cpu.data 22242.076130                       # average overall mshr miss latency ((Cycle/Count))
system.cpu.dcache.demandAvgMshrMissLatency::total 22242.076130                       # average overall mshr miss latency ((Cycle/Count))
system.cpu.dcache.overallAvgMshrMissLatency::cpu.data 22242.076130                       # average overall mshr miss latency ((Cycle/Count))
system.cpu.dcache.overallAvgMshrMissLatency::total 22242.076130                       # average overall mshr miss latency ((Cycle/Count))
system.cpu.dcache.replacements                  52094                       # number of replacements (Count)
system.cpu.dcache.ReadReq.hits::cpu.data       452291                       # number of ReadReq hits (Count)
system.cpu.dcache.ReadReq.hits::total          452291                       # number of ReadReq hits (Count)
system.cpu.dcache.ReadReq.misses::cpu.data       114299                       # number of ReadReq misses (Count)
system.cpu.dcache.ReadReq.misses::total        114299                       # number of ReadReq misses (Count)
system.cpu.dcache.ReadReq.missLatency::cpu.data   3111034000                       # number of ReadReq miss ticks (Tick)
system.cpu.dcache.ReadReq.missLatency::total   3111034000                       # number of ReadReq miss ticks (Tick)
system.cpu.dcache.ReadReq.accesses::cpu.data       566590                       # number of ReadReq accesses(hits+misses) (Count)
system.cpu.dcache.ReadReq.accesses::total       566590                       # number of ReadReq accesses(hits+misses) (Count)
system.cpu.dcache.ReadReq.missRate::cpu.data     0.201731                       # miss rate for ReadReq accesses (Ratio)
system.cpu.dcache.ReadReq.missRate::total     0.201731                       # miss rate for ReadReq accesses (Ratio)
system.cpu.dcache.ReadReq.avgMissLatency::cpu.data 27218.383363                       # average ReadReq miss latency ((Tick/Count))
system.cpu.dcache.ReadReq.avgMissLatency::total 27218.383363                       # average ReadReq miss latency ((Tick/Count))
system.cpu.dcache.ReadReq.mshrHits::cpu.data        68798                       # number of ReadReq MSHR hits (Count)
system.cpu.dcache.ReadReq.mshrHits::total        68798                       # number of ReadReq MSHR hits (Count)
system.cpu.dcache.ReadReq.mshrMisses::cpu.data        45501                       # number of ReadReq MSHR misses (Count)
system.cpu.dcache.ReadReq.mshrMisses::total        45501                       # number of ReadReq MSHR misses (Count)
system.cpu.dcache.ReadReq.mshrMissLatency::cpu.data    997544000                       # number of ReadReq MSHR miss ticks (Tick)
system.cpu.dcache.ReadReq.mshrMissLatency::total    997544000                       # number of ReadReq MSHR miss ticks (Tick)
system.cpu.dcache.ReadReq.mshrMissRate::cpu.data     0.080307                       # mshr miss rate for ReadReq accesses (Ratio)
system.cpu.dcache.ReadReq.mshrMissRate::total     0.080307                       # mshr miss rate for ReadReq accesses (Ratio)
system.cpu.dcache.ReadReq.avgMshrMissLatency::cpu.data 21923.562120                       # average ReadReq mshr miss latency ((Tick/Count))
system.cpu.dcache.ReadReq.avgMshrMissLatency::total 21923.562120                       # average ReadReq mshr miss latency ((Tick/Count))
system.cpu.dcache.WriteReq.hits::cpu.data       192504                       # number of WriteReq hits (Count)
system.cpu.dcache.WriteReq.hits::total         192504                       # number of WriteReq hits (Count)
system.cpu.dcache.WriteReq.misses::cpu.data         6725                       # number of WriteReq misses (Count)
system.cpu.dcache.WriteReq.misses::total         6725                       # number of WriteReq misses (Count)
system.cpu.dcache.WriteReq.missLatency::cpu.data    170152412                       # number of WriteReq miss ticks (Tick)
system.cpu.dcache.WriteReq.missLatency::total    170152412                       # number of WriteReq miss ticks (Tick)
system.cpu.dcache.WriteReq.accesses::cpu.data       199229                       # number of WriteReq accesses(hits+misses) (Count)
system.cpu.dcache.WriteReq.accesses::total       199229                       # number of WriteReq accesses(hits+misses) (Count)
system.cpu.dcache.WriteReq.missRate::cpu.data     0.033755                       # miss rate for WriteReq accesses (Ratio)
system.cpu.dcache.WriteReq.missRate::total     0.033755                       # miss rate for WriteReq accesses (Ratio)
system.cpu.dcache.WriteReq.avgMissLatency::cpu.data 25301.473903                       # average WriteReq miss latency ((Tick/Count))
system.cpu.dcache.WriteReq.avgMissLatency::total 25301.473903                       # average WriteReq miss latency ((Tick/Count))
system.cpu.dcache.WriteReq.mshrHits::cpu.data           65                       # number of WriteReq MSHR hits (Count)
system.cpu.dcache.WriteReq.mshrHits::total           65                       # number of WriteReq MSHR hits (Count)
system.cpu.dcache.WriteReq.mshrMisses::cpu.data         6660                       # number of WriteReq MSHR misses (Count)
system.cpu.dcache.WriteReq.mshrMisses::total         6660                       # number of WriteReq MSHR misses (Count)
system.cpu.dcache.WriteReq.mshrMissLatency::cpu.data    162624933                       # number of WriteReq MSHR miss ticks (Tick)
system.cpu.dcache.WriteReq.mshrMissLatency::total    162624933                       # number of WriteReq MSHR miss ticks (Tick)
system.cpu.dcache.WriteReq.mshrMissRate::cpu.data     0.033429                       # mshr miss rate for WriteReq accesses (Ratio)
system.cpu.dcache.WriteReq.mshrMissRate::total     0.033429                       # mshr miss rate for WriteReq accesses (Ratio)
system.cpu.dcache.WriteReq.avgMshrMissLatency::cpu.data 24418.158108                       # average WriteReq mshr miss latency ((Tick/Count))
system.cpu.dcache.WriteReq.avgMshrMissLatency::total 24418.158108                       # average WriteReq mshr miss latency ((Tick/Count))
system.cpu.dcache.power_state.pwrStateResidencyTicks::UNDEFINED 18446744073709551616                       # Cumulative time (in ticks) in various power states (Tick)
system.cpu.dcache.tags.tagsInUse                  inf                       # Average ticks per tags in use ((Tick/Count))
system.cpu.dcache.tags.totalRefs               696956                       # Total number of references to valid blocks. (Count)
system.cpu.dcache.tags.sampledRefs              52158                       # Sample count of references to valid blocks. (Count)
system.cpu.dcache.tags.avgRefs              13.362399                       # Average number of references to valid blocks. ((Count/Count))
system.cpu.dcache.tags.warmupTick              132500                       # The tick when the warmup percentage was hit. (Tick)
system.cpu.dcache.tags.occupancies::cpu.data          inf                       # Average occupied blocks per tick, per requestor ((Count/Tick))
system.cpu.dcache.tags.avgOccs::writebacks          nan                       # Average percentage of cache occupancy ((Ratio/Tick))
system.cpu.dcache.tags.avgOccs::functional          nan                       # Average percentage of cache occupancy ((Ratio/Tick))
system.cpu.dcache.tags.avgOccs::interrupt          nan                       # Average percentage of cache occupancy ((Ratio/Tick))
system.cpu.dcache.tags.avgOccs::cpu.mmu.dtb.walker          nan                       # Average percentage of cache occupancy ((Ratio/Tick))
system.cpu.dcache.tags.avgOccs::cpu.mmu.itb.walker          nan                       # Average percentage of cache occupancy ((Ratio/Tick))
system.cpu.dcache.tags.avgOccs::cpu.inst          nan                       # Average percentage of cache occupancy ((Ratio/Tick))
system.cpu.dcache.tags.avgOccs::cpu.data          inf                       # Average percentage of cache occupancy ((Ratio/Tick))
system.cpu.dcache.tags.avgOccs::total             nan                       # Average percentage of cache occupancy ((Ratio/Tick))
system.cpu.dcache.tags.occupanciesTaskId::1024           64                       # Occupied blocks per task id (Count)
system.cpu.dcache.tags.ageTaskId_1024::4           64                       # Occupied blocks per task id, per block age (Count)
system.cpu.dcache.tags.ratioOccsTaskId::1024            1                       # Ratio of occupied blocks and all blocks, per task id (Ratio)
system.cpu.dcache.tags.tagAccesses            1583796                       # Number of tag accesses (Count)
system.cpu.dcache.tags.dataAccesses           1583796                       # Number of data accesses (Count)
system.cpu.dcache.tags.power_state.pwrStateResidencyTicks::UNDEFINED 18446744073709551616                       # Cumulative time (in ticks) in various power states (Tick)
system.cpu.decode.idleCycles                   321010                       # Number of cycles decode is idle (Cycle)
system.cpu.decode.blockedCycles               1418724                       # Number of cycles decode is blocked (Cycle)
system.cpu.decode.runCycles                    479042                       # Number of cycles decode is running (Cycle)
system.cpu.decode.unblockCycles                245138                       # Number of cycles decode is unblocking (Cycle)
system.cpu.decode.squashCycles                  16655                       # Number of cycles decode is squashing (Cycle)
system.cpu.decode.branchResolved               255158                       # Number of times decode resolved a branch (Count)
system.cpu.decode.branchMispred                  1164                       # Number of times decode detected a branch misprediction (Count)
system.cpu.decode.decodedInsts                5232426                       # Number of instructions handled by decode (Count)
system.cpu.decode.squashedInsts                  5632                       # Number of squashed instructions handled by decode (Count)
system.cpu.dtb_walker_cache.blockedCycles::no_mshrs            0                       # number of cycles access was blocked (Cycle)
system.cpu.dtb_walker_cache.blockedCycles::no_targets            0                       # number of cycles access was blocked (Cycle)
system.cpu.dtb_walker_cache.blockedCauses::no_mshrs            0                       # number of times access was blocked (Count)
system.cpu.dtb_walker_cache.blockedCauses::no_targets            0                       # number of times access was blocked (Count)
system.cpu.dtb_walker_cache.avgBlocked::no_mshrs          nan                       # average number of cycles each access was blocked ((Cycle/Count))
system.cpu.dtb_walker_cache.avgBlocked::no_targets          nan                       # average number of cycles each access was blocked ((Cycle/Count))
system.cpu.dtb_walker_cache.replacements            0                       # number of replacements (Count)
system.cpu.dtb_walker_cache.power_state.pwrStateResidencyTicks::UNDEFINED 18446744073709551616                       # Cumulative time (in ticks) in various power states (Tick)
system.cpu.dtb_walker_cache.tags.tagsInUse          nan                       # Average ticks per tags in use ((Tick/Count))
system.cpu.dtb_walker_cache.tags.totalRefs            0                       # Total number of references to valid blocks. (Count)
system.cpu.dtb_walker_cache.tags.sampledRefs            0                       # Sample count of references to valid blocks. (Count)
system.cpu.dtb_walker_cache.tags.avgRefs          nan                       # Average number of references to valid blocks. ((Count/Count))
system.cpu.dtb_walker_cache.tags.warmupTick            0                       # The tick when the warmup percentage was hit. (Tick)
system.cpu.dtb_walker_cache.tags.avgOccs::writebacks          nan                       # Average percentage of cache occupancy ((Ratio/Tick))
system.cpu.dtb_walker_cache.tags.avgOccs::functional          nan                       # Average percentage of cache occupancy ((Ratio/Tick))
system.cpu.dtb_walker_cache.tags.avgOccs::interrupt          nan                       # Average percentage of cache occupancy ((Ratio/Tick))
system.cpu.dtb_walker_cache.tags.avgOccs::cpu.mmu.dtb.walker          nan                       # Average percentage of cache occupancy ((Ratio/Tick))
system.cpu.dtb_walker_cache.tags.avgOccs::cpu.mmu.itb.walker          nan                       # Average percentage of cache occupancy ((Ratio/Tick))
system.cpu.dtb_walker_cache.tags.avgOccs::cpu.inst          nan                       # Average percentage of cache occupancy ((Ratio/Tick))
system.cpu.dtb_walker_cache.tags.avgOccs::cpu.data          nan                       # Average percentage of cache occupancy ((Ratio/Tick))
system.cpu.dtb_walker_cache.tags.avgOccs::total          nan                       # Average percentage of cache occupancy ((Ratio/Tick))
system.cpu.dtb_walker_cache.tags.tagAccesses            0                       # Number of tag accesses (Count)
system.cpu.dtb_walker_cache.tags.dataAccesses            0                       # Number of data accesses (Count)
system.cpu.dtb_walker_cache.tags.power_state.pwrStateResidencyTicks::UNDEFINED 18446744073709551616                       # Cumulative time (in ticks) in various power states (Tick)
system.cpu.fetch.icacheStallCycles             349847                       # Number of cycles fetch is stalled on an Icache miss (Cycle)
system.cpu.fetch.insts                        3161076                       # Number of instructions fetch has processed (Count)
system.cpu.fetch.branches                      523734                       # Number of branches that fetch encountered (Count)
system.cpu.fetch.predictedBranches             290157                       # Number of branches that fetch has predicted taken (Count)
system.cpu.fetch.cycles                       2108848                       # Number of cycles fetch has run and was not squashing or blocked (Cycle)
system.cpu.fetch.squashCycles                   35586                       # Number of cycles fetch has spent squashing (Cycle)
system.cpu.fetch.miscStallCycles                  452                       # Number of cycles fetch has spent waiting on interrupts, or bad addresses, or out of MSHRs (Cycle)
system.cpu.fetch.pendingTrapStallCycles          3461                       # Number of stall cycles due to pending traps (Cycle)
system.cpu.fetch.pendingQuiesceStallCycles          108                       # Number of stall cycles due to pending quiesce instructions (Cycle)
system.cpu.fetch.icacheWaitRetryStallCycles           60                       # Number of stall cycles due to full MSHR (Cycle)
system.cpu.fetch.cacheLines                    269260                       # Number of cache lines fetched (Count)
system.cpu.fetch.icacheSquashes                  4305                       # Number of outstanding Icache misses that were squashed (Count)
system.cpu.fetch.nisnDist::samples            2480569                       # Number of instructions fetched each cycle (Total) (Count)
system.cpu.fetch.nisnDist::mean              2.235369                       # Number of instructions fetched each cycle (Total) (Count)
system.cpu.fetch.nisnDist::stdev             3.259081                       # Number of instructions fetched each cycle (Total) (Count)
system.cpu.fetch.nisnDist::underflows               0      0.00%      0.00% # Number of instructions fetched each cycle (Total) (Count)
system.cpu.fetch.nisnDist::0                  1562470     62.99%     62.99% # Number of instructions fetched each cycle (Total) (Count)
system.cpu.fetch.nisnDist::1                    44512      1.79%     64.78% # Number of instructions fetched each cycle (Total) (Count)
system.cpu.fetch.nisnDist::2                    86503      3.49%     68.27% # Number of instructions fetched each cycle (Total) (Count)
system.cpu.fetch.nisnDist::3                    37969      1.53%     69.80% # Number of instructions fetched each cycle (Total) (Count)
system.cpu.fetch.nisnDist::4                   109473      4.41%     74.21% # Number of instructions fetched each cycle (Total) (Count)
system.cpu.fetch.nisnDist::5                    52673      2.12%     76.34% # Number of instructions fetched each cycle (Total) (Count)
system.cpu.fetch.nisnDist::6                    63878      2.58%     78.91% # Number of instructions fetched each cycle (Total) (Count)
system.cpu.fetch.nisnDist::7                    55690      2.25%     81.16% # Number of instructions fetched each cycle (Total) (Count)
system.cpu.fetch.nisnDist::8                   467401     18.84%    100.00% # Number of instructions fetched each cycle (Total) (Count)
system.cpu.fetch.nisnDist::overflows                0      0.00%    100.00% # Number of instructions fetched each cycle (Total) (Count)
system.cpu.fetch.nisnDist::min_value                0                       # Number of instructions fetched each cycle (Total) (Count)
system.cpu.fetch.nisnDist::max_value                8                       # Number of instructions fetched each cycle (Total) (Count)
system.cpu.fetch.nisnDist::total              2480569                       # Number of instructions fetched each cycle (Total) (Count)
system.cpu.fetch.branchRate                  0.202255                       # Number of branch fetches per cycle (Ratio)
system.cpu.fetch.rate                        1.220742                       # Number of inst fetches per cycle ((Count/Cycle))
system.cpu.icache.demandHits::cpu.inst         265990                       # number of demand (read+write) hits (Count)
system.cpu.icache.demandHits::total            265990                       # number of demand (read+write) hits (Count)
system.cpu.icache.overallHits::cpu.inst        265990                       # number of overall hits (Count)
system.cpu.icache.overallHits::total           265990                       # number of overall hits (Count)
system.cpu.icache.demandMisses::cpu.inst         3270                       # number of demand (read+write) misses (Count)
system.cpu.icache.demandMisses::total            3270                       # number of demand (read+write) misses (Count)
system.cpu.icache.overallMisses::cpu.inst         3270                       # number of overall misses (Count)
system.cpu.icache.overallMisses::total           3270                       # number of overall misses (Count)
system.cpu.icache.demandMissLatency::cpu.inst    163645500                       # number of demand (read+write) miss ticks (Tick)
system.cpu.icache.demandMissLatency::total    163645500                       # number of demand (read+write) miss ticks (Tick)
system.cpu.icache.overallMissLatency::cpu.inst    163645500                       # number of overall miss ticks (Tick)
system.cpu.icache.overallMissLatency::total    163645500                       # number of overall miss ticks (Tick)
system.cpu.icache.demandAccesses::cpu.inst       269260                       # number of demand (read+write) accesses (Count)
system.cpu.icache.demandAccesses::total        269260                       # number of demand (read+write) accesses (Count)
system.cpu.icache.overallAccesses::cpu.inst       269260                       # number of overall (read+write) accesses (Count)
system.cpu.icache.overallAccesses::total       269260                       # number of overall (read+write) accesses (Count)
system.cpu.icache.demandMissRate::cpu.inst     0.012144                       # miss rate for demand accesses (Ratio)
system.cpu.icache.demandMissRate::total      0.012144                       # miss rate for demand accesses (Ratio)
system.cpu.icache.overallMissRate::cpu.inst     0.012144                       # miss rate for overall accesses (Ratio)
system.cpu.icache.overallMissRate::total     0.012144                       # miss rate for overall accesses (Ratio)
system.cpu.icache.demandAvgMissLatency::cpu.inst 50044.495413                       # average overall miss latency ((Cycle/Count))
system.cpu.icache.demandAvgMissLatency::total 50044.495413                       # average overall miss latency ((Cycle/Count))
system.cpu.icache.overallAvgMissLatency::cpu.inst 50044.495413                       # average overall miss latency ((Cycle/Count))
system.cpu.icache.overallAvgMissLatency::total 50044.495413                       # average overall miss latency ((Cycle/Count))
system.cpu.icache.blockedCycles::no_mshrs          443                       # number of cycles access was blocked (Cycle)
system.cpu.icache.blockedCycles::no_targets            0                       # number of cycles access was blocked (Cycle)
system.cpu.icache.blockedCauses::no_mshrs           10                       # number of times access was blocked (Count)
system.cpu.icache.blockedCauses::no_targets            0                       # number of times access was blocked (Count)
system.cpu.icache.avgBlocked::no_mshrs      44.300000                       # average number of cycles each access was blocked ((Cycle/Count))
system.cpu.icache.avgBlocked::no_targets          nan                       # average number of cycles each access was blocked ((Cycle/Count))
system.cpu.icache.writebacks::writebacks         2109                       # number of writebacks (Count)
system.cpu.icache.writebacks::total              2109                       # number of writebacks (Count)
system.cpu.icache.demandMshrHits::cpu.inst          648                       # number of demand (read+write) MSHR hits (Count)
system.cpu.icache.demandMshrHits::total           648                       # number of demand (read+write) MSHR hits (Count)
system.cpu.icache.overallMshrHits::cpu.inst          648                       # number of overall MSHR hits (Count)
system.cpu.icache.overallMshrHits::total          648                       # number of overall MSHR hits (Count)
system.cpu.icache.demandMshrMisses::cpu.inst         2622                       # number of demand (read+write) MSHR misses (Count)
system.cpu.icache.demandMshrMisses::total         2622                       # number of demand (read+write) MSHR misses (Count)
system.cpu.icache.overallMshrMisses::cpu.inst         2622                       # number of overall MSHR misses (Count)
system.cpu.icache.overallMshrMisses::total         2622                       # number of overall MSHR misses (Count)
system.cpu.icache.demandMshrMissLatency::cpu.inst    133662000                       # number of demand (read+write) MSHR miss ticks (Tick)
system.cpu.icache.demandMshrMissLatency::total    133662000                       # number of demand (read+write) MSHR miss ticks (Tick)
system.cpu.icache.overallMshrMissLatency::cpu.inst    133662000                       # number of overall MSHR miss ticks (Tick)
system.cpu.icache.overallMshrMissLatency::total    133662000                       # number of overall MSHR miss ticks (Tick)
system.cpu.icache.demandMshrMissRate::cpu.inst     0.009738                       # mshr miss ratio for demand accesses (Ratio)
system.cpu.icache.demandMshrMissRate::total     0.009738                       # mshr miss ratio for demand accesses (Ratio)
system.cpu.icache.overallMshrMissRate::cpu.inst     0.009738                       # mshr miss ratio for overall accesses (Ratio)
system.cpu.icache.overallMshrMissRate::total     0.009738                       # mshr miss ratio for overall accesses (Ratio)
system.cpu.icache.demandAvgMshrMissLatency::cpu.inst 50977.116705                       # average overall mshr miss latency ((Cycle/Count))
system.cpu.icache.demandAvgMshrMissLatency::total 50977.116705                       # average overall mshr miss latency ((Cycle/Count))
system.cpu.icache.overallAvgMshrMissLatency::cpu.inst 50977.116705                       # average overall mshr miss latency ((Cycle/Count))
system.cpu.icache.overallAvgMshrMissLatency::total 50977.116705                       # average overall mshr miss latency ((Cycle/Count))
system.cpu.icache.replacements                   2109                       # number of replacements (Count)
system.cpu.icache.ReadReq.hits::cpu.inst       265990                       # number of ReadReq hits (Count)
system.cpu.icache.ReadReq.hits::total          265990                       # number of ReadReq hits (Count)
system.cpu.icache.ReadReq.misses::cpu.inst         3270                       # number of ReadReq misses (Count)
system.cpu.icache.ReadReq.misses::total          3270                       # number of ReadReq misses (Count)
system.cpu.icache.ReadReq.missLatency::cpu.inst    163645500                       # number of ReadReq miss ticks (Tick)
system.cpu.icache.ReadReq.missLatency::total    163645500                       # number of ReadReq miss ticks (Tick)
system.cpu.icache.ReadReq.accesses::cpu.inst       269260                       # number of ReadReq accesses(hits+misses) (Count)
system.cpu.icache.ReadReq.accesses::total       269260                       # number of ReadReq accesses(hits+misses) (Count)
system.cpu.icache.ReadReq.missRate::cpu.inst     0.012144                       # miss rate for ReadReq accesses (Ratio)
system.cpu.icache.ReadReq.missRate::total     0.012144                       # miss rate for ReadReq accesses (Ratio)
system.cpu.icache.ReadReq.avgMissLatency::cpu.inst 50044.495413                       # average ReadReq miss latency ((Tick/Count))
system.cpu.icache.ReadReq.avgMissLatency::total 50044.495413                       # average ReadReq miss latency ((Tick/Count))
system.cpu.icache.ReadReq.mshrHits::cpu.inst          648                       # number of ReadReq MSHR hits (Count)
system.cpu.icache.ReadReq.mshrHits::total          648                       # number of ReadReq MSHR hits (Count)
system.cpu.icache.ReadReq.mshrMisses::cpu.inst         2622                       # number of ReadReq MSHR misses (Count)
system.cpu.icache.ReadReq.mshrMisses::total         2622                       # number of ReadReq MSHR misses (Count)
system.cpu.icache.ReadReq.mshrMissLatency::cpu.inst    133662000                       # number of ReadReq MSHR miss ticks (Tick)
system.cpu.icache.ReadReq.mshrMissLatency::total    133662000                       # number of ReadReq MSHR miss ticks (Tick)
system.cpu.icache.ReadReq.mshrMissRate::cpu.inst     0.009738                       # mshr miss rate for ReadReq accesses (Ratio)
system.cpu.icache.ReadReq.mshrMissRate::total     0.009738                       # mshr miss rate for ReadReq accesses (Ratio)
system.cpu.icache.ReadReq.avgMshrMissLatency::cpu.inst 50977.116705                       # average ReadReq mshr miss latency ((Tick/Count))
system.cpu.icache.ReadReq.avgMshrMissLatency::total 50977.116705                       # average ReadReq mshr miss latency ((Tick/Count))
system.cpu.icache.power_state.pwrStateResidencyTicks::UNDEFINED 18446744073709551616                       # Cumulative time (in ticks) in various power states (Tick)
system.cpu.icache.tags.tagsInUse                  inf                       # Average ticks per tags in use ((Tick/Count))
system.cpu.icache.tags.totalRefs               268612                       # Total number of references to valid blocks. (Count)
system.cpu.icache.tags.sampledRefs               2622                       # Sample count of references to valid blocks. (Count)
system.cpu.icache.tags.avgRefs             102.445461                       # Average number of references to valid blocks. ((Count/Count))
system.cpu.icache.tags.warmupTick               62500                       # The tick when the warmup percentage was hit. (Tick)
system.cpu.icache.tags.occupancies::cpu.inst          inf                       # Average occupied blocks per tick, per requestor ((Count/Tick))
system.cpu.icache.tags.avgOccs::writebacks          nan                       # Average percentage of cache occupancy ((Ratio/Tick))
system.cpu.icache.tags.avgOccs::functional          nan                       # Average percentage of cache occupancy ((Ratio/Tick))
system.cpu.icache.tags.avgOccs::interrupt          nan                       # Average percentage of cache occupancy ((Ratio/Tick))
system.cpu.icache.tags.avgOccs::cpu.mmu.dtb.walker          nan                       # Average percentage of cache occupancy ((Ratio/Tick))
system.cpu.icache.tags.avgOccs::cpu.mmu.itb.walker          nan                       # Average percentage of cache occupancy ((Ratio/Tick))
system.cpu.icache.tags.avgOccs::cpu.inst          inf                       # Average percentage of cache occupancy ((Ratio/Tick))
system.cpu.icache.tags.avgOccs::cpu.data          nan                       # Average percentage of cache occupancy ((Ratio/Tick))
system.cpu.icache.tags.avgOccs::total             nan                       # Average percentage of cache occupancy ((Ratio/Tick))
system.cpu.icache.tags.occupanciesTaskId::1024          510                       # Occupied blocks per task id (Count)
system.cpu.icache.tags.ageTaskId_1024::4          510                       # Occupied blocks per task id, per block age (Count)
system.cpu.icache.tags.ratioOccsTaskId::1024     0.996094                       # Ratio of occupied blocks and all blocks, per task id (Ratio)
system.cpu.icache.tags.tagAccesses             541142                       # Number of tag accesses (Count)
system.cpu.icache.tags.dataAccesses            541142                       # Number of data accesses (Count)
system.cpu.icache.tags.power_state.pwrStateResidencyTicks::UNDEFINED 18446744073709551616                       # Cumulative time (in ticks) in various power states (Tick)
system.cpu.iew.idleCycles                           0                       # Number of cycles IEW is idle (Cycle)
system.cpu.iew.squashCycles                     16655                       # Number of cycles IEW is squashing (Cycle)
system.cpu.iew.blockCycles                     684205                       # Number of cycles IEW is blocking (Cycle)
system.cpu.iew.unblockCycles                    38100                       # Number of cycles IEW is unblocking (Cycle)
system.cpu.iew.dispatchedInsts                5036434                       # Number of instructions dispatched to IQ (Count)
system.cpu.iew.dispSquashedInsts                 1082                       # Number of squashed instructions skipped by dispatch (Count)
system.cpu.iew.dispLoadInsts                   667120                       # Number of dispatched load instructions (Count)
system.cpu.iew.dispStoreInsts                  260491                       # Number of dispatched store instructions (Count)
system.cpu.iew.dispNonSpecInsts                   818                       # Number of dispatched non-speculative instructions (Count)
system.cpu.iew.iqFullEvents                     12284                       # Number of times the IQ has become full, causing a stall (Count)
system.cpu.iew.lsqFullEvents                    18347                       # Number of times the LSQ has become full, causing a stall (Count)
system.cpu.iew.memOrderViolationEvents            214                       # Number of memory order violations (Count)
system.cpu.iew.predictedTakenIncorrect           7601                       # Number of branches that were predicted taken incorrectly (Count)
system.cpu.iew.predictedNotTakenIncorrect        11316                       # Number of branches that were predicted not taken incorrectly (Count)
system.cpu.iew.branchMispredicts                18917                       # Number of branch mispredicts detected at execute (Count)
system.cpu.iew.instsToCommit                  4558506                       # Cumulative count of insts sent to commit (Count)
system.cpu.iew.writebackCount                 4550791                       # Cumulative count of insts written-back (Count)
system.cpu.iew.producerInst                   3575113                       # Number of instructions producing a value (Count)
system.cpu.iew.consumerInst                   6669234                       # Number of instructions consuming a value (Count)
system.cpu.iew.wbRate                        1.757422                       # Insts written-back per cycle ((Count/Cycle))
system.cpu.iew.wbFanout                      0.536061                       # Average fanout of values written-back ((Count/Count))
system.cpu.interrupts.clk_domain.clock           8000                       # Clock period in ticks (Tick)
system.cpu.itb_walker_cache.blockedCycles::no_mshrs            0                       # number of cycles access was blocked (Cycle)
system.cpu.itb_walker_cache.blockedCycles::no_targets            0                       # number of cycles access was blocked (Cycle)
system.cpu.itb_walker_cache.blockedCauses::no_mshrs            0                       # number of times access was blocked (Count)
system.cpu.itb_walker_cache.blockedCauses::no_targets            0                       # number of times access was blocked (Count)
system.cpu.itb_walker_cache.avgBlocked::no_mshrs          nan                       # average number of cycles each access was blocked ((Cycle/Count))
system.cpu.itb_walker_cache.avgBlocked::no_targets          nan                       # average number of cycles each access was blocked ((Cycle/Count))
system.cpu.itb_walker_cache.replacements            0                       # number of replacements (Count)
system.cpu.itb_walker_cache.power_state.pwrStateResidencyTicks::UNDEFINED 18446744073709551616                       # Cumulative time (in ticks) in various power states (Tick)
system.cpu.itb_walker_cache.tags.tagsInUse          nan                       # Average ticks per tags in use ((Tick/Count))
system.cpu.itb_walker_cache.tags.totalRefs            0                       # Total number of references to valid blocks. (Count)
system.cpu.itb_walker_cache.tags.sampledRefs            0                       # Sample count of references to valid blocks. (Count)
system.cpu.itb_walker_cache.tags.avgRefs          nan                       # Average number of references to valid blocks. ((Count/Count))
system.cpu.itb_walker_cache.tags.warmupTick            0                       # The tick when the warmup percentage was hit. (Tick)
system.cpu.itb_walker_cache.tags.avgOccs::writebacks          nan                       # Average percentage of cache occupancy ((Ratio/Tick))
system.cpu.itb_walker_cache.tags.avgOccs::functional          nan                       # Average percentage of cache occupancy ((Ratio/Tick))
system.cpu.itb_walker_cache.tags.avgOccs::interrupt          nan                       # Average percentage of cache occupancy ((Ratio/Tick))
system.cpu.itb_walker_cache.tags.avgOccs::cpu.mmu.dtb.walker          nan                       # Average percentage of cache occupancy ((Ratio/Tick))
system.cpu.itb_walker_cache.tags.avgOccs::cpu.mmu.itb.walker          nan                       # Average percentage of cache occupancy ((Ratio/Tick))
system.cpu.itb_walker_cache.tags.avgOccs::cpu.inst          nan                       # Average percentage of cache occupancy ((Ratio/Tick))
[...]
system.l2.ReadExReq.mshrMissRate::total      0.224689                       # mshr miss rate for ReadExReq accesses (Ratio)
system.l2.ReadExReq.avgMshrMissLatency::cpu.data 50989.652870                       # average ReadExReq mshr miss latency ((Tick/Count))
system.l2.ReadExReq.avgMshrMissLatency::total 50989.652870                       # average ReadExReq mshr miss latency ((Tick/Count))
system.l2.ReadSharedReq.hits::cpu.data          37049                       # number of ReadSharedReq hits (Count)
system.l2.ReadSharedReq.hits::total             37049                       # number of ReadSharedReq hits (Count)
system.l2.ReadSharedReq.misses::cpu.data         8442                       # number of ReadSharedReq misses (Count)
system.l2.ReadSharedReq.misses::total            8442                       # number of ReadSharedReq misses (Count)
system.l2.ReadSharedReq.missLatency::cpu.data    515729000                       # number of ReadSharedReq miss ticks (Tick)
system.l2.ReadSharedReq.missLatency::total    515729000                       # number of ReadSharedReq miss ticks (Tick)
system.l2.ReadSharedReq.accesses::cpu.data        45491                       # number of ReadSharedReq accesses(hits+misses) (Count)
system.l2.ReadSharedReq.accesses::total         45491                       # number of ReadSharedReq accesses(hits+misses) (Count)
system.l2.ReadSharedReq.missRate::cpu.data     0.185575                       # miss rate for ReadSharedReq accesses (Ratio)
system.l2.ReadSharedReq.missRate::total      0.185575                       # miss rate for ReadSharedReq accesses (Ratio)
system.l2.ReadSharedReq.avgMissLatency::cpu.data 61090.855248                       # average ReadSharedReq miss latency ((Tick/Count))
system.l2.ReadSharedReq.avgMissLatency::total 61090.855248                       # average ReadSharedReq miss latency ((Tick/Count))
system.l2.ReadSharedReq.mshrMisses::cpu.data         8442                       # number of ReadSharedReq MSHR misses (Count)
system.l2.ReadSharedReq.mshrMisses::total         8442                       # number of ReadSharedReq MSHR misses (Count)
system.l2.ReadSharedReq.mshrMissLatency::cpu.data    431309000                       # number of ReadSharedReq MSHR miss ticks (Tick)
system.l2.ReadSharedReq.mshrMissLatency::total    431309000                       # number of ReadSharedReq MSHR miss ticks (Tick)
system.l2.ReadSharedReq.mshrMissRate::cpu.data     0.185575                       # mshr miss rate for ReadSharedReq accesses (Ratio)
system.l2.ReadSharedReq.mshrMissRate::total     0.185575                       # mshr miss rate for ReadSharedReq accesses (Ratio)
system.l2.ReadSharedReq.avgMshrMissLatency::cpu.data 51090.855248                       # average ReadSharedReq mshr miss latency ((Tick/Count))
system.l2.ReadSharedReq.avgMshrMissLatency::total 51090.855248                       # average ReadSharedReq mshr miss latency ((Tick/Count))
system.l2.UpgradeReq.hits::cpu.data                 3                       # number of UpgradeReq hits (Count)
system.l2.UpgradeReq.hits::total                    3                       # number of UpgradeReq hits (Count)
system.l2.UpgradeReq.accesses::cpu.data             3                       # number of UpgradeReq accesses(hits+misses) (Count)
system.l2.UpgradeReq.accesses::total                3                       # number of UpgradeReq accesses(hits+misses) (Count)
system.l2.WritebackClean.hits::writebacks         2108                       # number of WritebackClean hits (Count)
system.l2.WritebackClean.hits::total             2108                       # number of WritebackClean hits (Count)
system.l2.WritebackClean.accesses::writebacks         2108                       # number of WritebackClean accesses(hits+misses) (Count)
system.l2.WritebackClean.accesses::total         2108                       # number of WritebackClean accesses(hits+misses) (Count)
system.l2.WritebackDirty.hits::writebacks        28790                       # number of WritebackDirty hits (Count)
system.l2.WritebackDirty.hits::total            28790                       # number of WritebackDirty hits (Count)
system.l2.WritebackDirty.accesses::writebacks        28790                       # number of WritebackDirty accesses(hits+misses) (Count)
system.l2.WritebackDirty.accesses::total        28790                       # number of WritebackDirty accesses(hits+misses) (Count)
system.l2.power_state.pwrStateResidencyTicks::UNDEFINED 18446744073709551616                       # Cumulative time (in ticks) in various power states (Tick)
system.l2.tags.tagsInUse                          inf                       # Average ticks per tags in use ((Tick/Count))
system.l2.tags.totalRefs                       108954                       # Total number of references to valid blocks. (Count)
system.l2.tags.sampledRefs                      11958                       # Sample count of references to valid blocks. (Count)
system.l2.tags.avgRefs                       9.111390                       # Average number of references to valid blocks. ((Count/Count))
system.l2.tags.warmupTick                       52000                       # The tick when the warmup percentage was hit. (Tick)
system.l2.tags.occupancies::cpu.inst              inf                       # Average occupied blocks per tick, per requestor ((Count/Tick))
system.l2.tags.occupancies::cpu.data              inf                       # Average occupied blocks per tick, per requestor ((Count/Tick))
system.l2.tags.avgOccs::writebacks                nan                       # Average percentage of cache occupancy ((Ratio/Tick))
system.l2.tags.avgOccs::functional                nan                       # Average percentage of cache occupancy ((Ratio/Tick))
system.l2.tags.avgOccs::interrupt                 nan                       # Average percentage of cache occupancy ((Ratio/Tick))
system.l2.tags.avgOccs::cpu.mmu.dtb.walker          nan                       # Average percentage of cache occupancy ((Ratio/Tick))
system.l2.tags.avgOccs::cpu.mmu.itb.walker          nan                       # Average percentage of cache occupancy ((Ratio/Tick))
system.l2.tags.avgOccs::cpu.inst                  inf                       # Average percentage of cache occupancy ((Ratio/Tick))
system.l2.tags.avgOccs::cpu.data                  inf                       # Average percentage of cache occupancy ((Ratio/Tick))
system.l2.tags.avgOccs::total                     nan                       # Average percentage of cache occupancy ((Ratio/Tick))
system.l2.tags.occupanciesTaskId::1024          11958                       # Occupied blocks per task id (Count)
system.l2.tags.ageTaskId_1024::4                11958                       # Occupied blocks per task id, per block age (Count)
system.l2.tags.ratioOccsTaskId::1024         0.364929                       # Ratio of occupied blocks and all blocks, per task id (Ratio)
system.l2.tags.tagAccesses                     883590                       # Number of tag accesses (Count)
system.l2.tags.dataAccesses                    883590                       # Number of data accesses (Count)
system.l2.tags.power_state.pwrStateResidencyTicks::UNDEFINED 18446744073709551616                       # Cumulative time (in ticks) in various power states (Tick)
system.mem_ctrls.bytesRead::cpu.inst           129152                       # Number of bytes read from this memory (Byte)
system.mem_ctrls.bytesRead::cpu.data           636160                       # Number of bytes read from this memory (Byte)
system.mem_ctrls.bytesRead::total              765312                       # Number of bytes read from this memory (Byte)
system.mem_ctrls.bytesInstRead::cpu.inst       129152                       # Number of instructions bytes read from this memory (Byte)
system.mem_ctrls.bytesInstRead::total          129152                       # Number of instructions bytes read from this memory (Byte)
system.mem_ctrls.numReads::cpu.inst              2018                       # Number of read requests responded to by this memory (Count)
system.mem_ctrls.numReads::cpu.data              9940                       # Number of read requests responded to by this memory (Count)
system.mem_ctrls.numReads::total                11958                       # Number of read requests responded to by this memory (Count)
system.mem_ctrls.bwRead::cpu.inst                   0                       # Total read bandwidth from this memory ((Byte/Second))
system.mem_ctrls.bwRead::cpu.data                   0                       # Total read bandwidth from this memory ((Byte/Second))
system.mem_ctrls.bwRead::total                      0                       # Total read bandwidth from this memory ((Byte/Second))
system.mem_ctrls.bwInstRead::cpu.inst               0                       # Instruction read bandwidth from this memory ((Byte/Second))
system.mem_ctrls.bwInstRead::total                  0                       # Instruction read bandwidth from this memory ((Byte/Second))
system.mem_ctrls.bwTotal::cpu.inst                  0                       # Total bandwidth to/from this memory ((Byte/Second))
system.mem_ctrls.bwTotal::cpu.data                  0                       # Total bandwidth to/from this memory ((Byte/Second))
system.mem_ctrls.bwTotal::total                     0                       # Total bandwidth to/from this memory ((Byte/Second))
system.mem_ctrls.power_state.pwrStateResidencyTicks::UNDEFINED 18446744073709551616                       # Cumulative time (in ticks) in various power states (Tick)
system.membus.transDist::ReadResp               10460                       # Transaction distribution (Count)
system.membus.transDist::ReadExReq               1498                       # Transaction distribution (Count)
system.membus.transDist::ReadExResp              1498                       # Transaction distribution (Count)
system.membus.transDist::ReadSharedReq          10460                       # Transaction distribution (Count)
system.membus.pktCount_system.l2.mem_side_port::system.mem_ctrls.port        23916                       # Packet count per connected requestor and responder (Count)
system.membus.pktCount_system.l2.mem_side_port::total        23916                       # Packet count per connected requestor and responder (Count)
system.membus.pktCount::total                   23916                       # Packet count per connected requestor and responder (Count)
system.membus.pktSize_system.l2.mem_side_port::system.mem_ctrls.port       765312                       # Cumulative packet size per connected requestor and responder (Byte)
system.membus.pktSize_system.l2.mem_side_port::total       765312                       # Cumulative packet size per connected requestor and responder (Byte)
system.membus.pktSize::total                   765312                       # Cumulative packet size per connected requestor and responder (Byte)
system.membus.snoops                                0                       # Total snoops (Count)
system.membus.snoopTraffic                          0                       # Total snoop traffic (Byte)
system.membus.snoopFanout::samples              13165                       # Request fanout histogram (Count)
system.membus.snoopFanout::mean                     0                       # Request fanout histogram (Count)
system.membus.snoopFanout::stdev                    0                       # Request fanout histogram (Count)
system.membus.snoopFanout::underflows               0      0.00%      0.00% # Request fanout histogram (Count)
system.membus.snoopFanout::0                    13165    100.00%    100.00% # Request fanout histogram (Count)
system.membus.snoopFanout::1                        0      0.00%    100.00% # Request fanout histogram (Count)
system.membus.snoopFanout::overflows                0      0.00%    100.00% # Request fanout histogram (Count)
system.membus.snoopFanout::min_value                0                       # Request fanout histogram (Count)
system.membus.snoopFanout::max_value                0                       # Request fanout histogram (Count)
system.membus.snoopFanout::total                13165                       # Request fanout histogram (Count)
system.membus.power_state.pwrStateResidencyTicks::UNDEFINED 18446744073709551616                       # Cumulative time (in ticks) in various power states (Tick)
system.membus.reqLayer2.occupancy            16592872                       # Layer occupancy (ticks) (Tick)
system.membus.reqLayer2.utilization               0.0                       # Layer utilization (Ratio)
system.membus.respLayer1.occupancy           59790000                       # Layer occupancy (ticks) (Tick)
system.membus.respLayer1.utilization              0.0                       # Layer utilization (Ratio)
system.membus.snoop_filter.totRequests          13165                       # Total number of requests made to the snoop filter. (Count)
system.membus.snoop_filter.hitSingleRequests            0                       # Number of requests hitting in the snoop filter with a single holder of the requested data. (Count)
system.membus.snoop_filter.hitMultiRequests            0                       # Number of requests hitting in the snoop filter with multiple (>1) holders of the requested data. (Count)
system.membus.snoop_filter.totSnoops                0                       # Total number of snoops made to the snoop filter. (Count)
system.membus.snoop_filter.hitSingleSnoops            0                       # Number of snoops hitting in the snoop filter with a single holder of the requested data. (Count)
system.membus.snoop_filter.hitMultiSnoops            0                       # Number of snoops hitting in the snoop filter with multiple (>1) holders of the requested data. (Count)
system.tol2bus.transDist::ReadResp              48113                       # Transaction distribution (Count)
system.tol2bus.transDist::WritebackDirty        28790                       # Transaction distribution (Count)
system.tol2bus.transDist::WritebackClean         2109                       # Transaction distribution (Count)
system.tol2bus.transDist::CleanEvict            23304                       # Transaction distribution (Count)
system.tol2bus.transDist::UpgradeReq                3                       # Transaction distribution (Count)
system.tol2bus.transDist::UpgradeResp               3                       # Transaction distribution (Count)
system.tol2bus.transDist::ReadExReq              6667                       # Transaction distribution (Count)
system.tol2bus.transDist::ReadExResp             6667                       # Transaction distribution (Count)
system.tol2bus.transDist::ReadCleanReq           2622                       # Transaction distribution (Count)
system.tol2bus.transDist::ReadSharedReq         45491                       # Transaction distribution (Count)
system.tol2bus.pktCount_system.cpu.icache.mem_side_port::system.l2.cpu_side_port         7350                       # Packet count per connected requestor and responder (Count)
system.tol2bus.pktCount_system.cpu.dcache.mem_side_port::system.l2.cpu_side_port       156416                       # Packet count per connected requestor and responder (Count)
system.tol2bus.pktCount::total                 163766                       # Packet count per connected requestor and responder (Count)
system.tol2bus.pktSize_system.cpu.icache.mem_side_port::system.l2.cpu_side_port       302592                       # Cumulative packet size per connected requestor and responder (Byte)
system.tol2bus.pktSize_system.cpu.dcache.mem_side_port::system.l2.cpu_side_port      5180672                       # Cumulative packet size per connected requestor and responder (Byte)
system.tol2bus.pktSize::total                 5483264                       # Cumulative packet size per connected requestor and responder (Byte)
system.tol2bus.snoops                               3                       # Total snoops (Count)
system.tol2bus.snoopTraffic                       192                       # Total snoop traffic (Byte)
system.tol2bus.snoopFanout::samples             54783                       # Request fanout histogram (Count)
system.tol2bus.snoopFanout::mean             0.000767                       # Request fanout histogram (Count)
system.tol2bus.snoopFanout::stdev            0.027678                       # Request fanout histogram (Count)
system.tol2bus.snoopFanout::underflows              0      0.00%      0.00% # Request fanout histogram (Count)
system.tol2bus.snoopFanout::0                   54741     99.92%     99.92% # Request fanout histogram (Count)
system.tol2bus.snoopFanout::1                      42      0.08%    100.00% # Request fanout histogram (Count)
system.tol2bus.snoopFanout::2                       0      0.00%    100.00% # Request fanout histogram (Count)
system.tol2bus.snoopFanout::3                       0      0.00%    100.00% # Request fanout histogram (Count)
system.tol2bus.snoopFanout::4                       0      0.00%    100.00% # Request fanout histogram (Count)
system.tol2bus.snoopFanout::overflows               0      0.00%    100.00% # Request fanout histogram (Count)
system.tol2bus.snoopFanout::min_value               0                       # Request fanout histogram (Count)
system.tol2bus.snoopFanout::max_value               1                       # Request fanout histogram (Count)
system.tol2bus.snoopFanout::total               54783                       # Request fanout histogram (Count)
system.tol2bus.power_state.pwrStateResidencyTicks::UNDEFINED 18446744073709551616                       # Cumulative time (in ticks) in various power states (Tick)
system.tol2bus.reqLayer0.occupancy           85392000                       # Layer occupancy (ticks) (Tick)
system.tol2bus.reqLayer0.utilization              0.0                       # Layer utilization (Ratio)
system.tol2bus.respLayer0.occupancy           3942980                       # Layer occupancy (ticks) (Tick)
system.tol2bus.respLayer0.utilization             0.0                       # Layer utilization (Ratio)
system.tol2bus.respLayer1.occupancy          78239498                       # Layer occupancy (ticks) (Tick)
system.tol2bus.respLayer1.utilization             0.0                       # Layer utilization (Ratio)
system.tol2bus.snoop_filter.totRequests        108986                       # Total number of requests made to the snoop filter. (Count)
system.tol2bus.snoop_filter.hitSingleRequests        54204                       # Number of requests hitting in the snoop filter with a single holder of the requested data. (Count)
system.tol2bus.snoop_filter.hitMultiRequests           41                       # Number of requests hitting in the snoop filter with multiple (>1) holders of the requested data. (Count)
system.tol2bus.snoop_filter.totSnoops               0                       # Total number of snoops made to the snoop filter. (Count)
system.tol2bus.snoop_filter.hitSingleSnoops            0                       # Number of snoops hitting in the snoop filter with a single holder of the requested data. (Count)
system.tol2bus.snoop_filter.hitMultiSnoops            0                       # Number of snoops hitting in the snoop filter with multiple (>1) holders of the requested data. (Count)
system.voltage_domain.voltage                       1                       # Voltage in Volts (Volt)
system.workload.inst.arm                            0                       # number of arm instructions executed (Count)
system.workload.inst.quiesce                        0                       # number of quiesce instructions executed (Count)

---------- End Simulation Statistics   ----------
