
---------- Begin Simulation Statistics ----------
simSeconds                               18446744.073710                       # Number of seconds simulated (Second)
simTicks                                 18446744073709551616                       # Number of ticks simulated (Tick)
finalTick                                18446744073709551616                       # Number of ticks from beginning of simulation (restored from checkpoints and never reset) (Tick)
simFreq                                  1000000000000                       # The number of ticks per simulated second ((Tick/Second))
hostSeconds                                     18.32                       # Real time elapsed on the host (Second)
hostTickRate                             1007152259870322688                       # The number of ticks simulated per host second (ticks/s) ((Tick/Second))
hostMemory                                    8577144                       # Number of bytes of host memory used (Byte)
simInsts                                      2221725                       # Number of instructions simulated (Count)
simOps                                        3887312                       # Number of ops (including micro ops) simulated (Count)
hostInstRate                                   121301                       # Simulator instruction rate (inst/s) ((Count/Second))
hostOpRate                                     212237                       # Simulator op (including micro ops) rate (op/s) ((Count/Second))
system.clk_domain.clock                          1000                       # Clock period in ticks (Tick)
system.cpu.numCycles                          2334410                       # Number of cpu cycles simulated (Cycle)
system.cpu.numWorkItemsStarted                      0                       # Number of work items this cpu started (Count)
system.cpu.numWorkItemsCompleted                    0                       # Number of work items this cpu completed (Count)
system.cpu.instsAdded                         4946360                       # Number of instructions added to the IQ (excludes non-spec) (Count)
system.cpu.nonSpecInstsAdded                      943                       # Number of non-speculative instructions added to the IQ (Count)
system.cpu.instsIssued                        4553658                       # Number of instructions issued (Count)
system.cpu.squashedInstsIssued                   2297                       # Number of squashed instructions issued (Count)
system.cpu.squashedInstsExamined              1059990                       # Number of squashed instructions iterated over during squash; mainly for profiling (Count)
system.cpu.squashedOperandsExamined           1592752                       # Number of squashed operands that are examined and possibly removed from graph (Count)
system.cpu.squashedNonSpecRemoved                  93                       # Number of squashed non-spec instructions that were removed (Count)
system.cpu.numIssuedDist::samples             2218273                       # Number of insts issued each cycle (Count)
system.cpu.numIssuedDist::mean               2.052794                       # Number of insts issued each cycle (Count)
system.cpu.numIssuedDist::stdev              2.334070                       # Number of insts issued each cycle (Count)
system.cpu.numIssuedDist::underflows                0      0.00%      0.00% # Number of insts issued each cycle (Count)
system.cpu.numIssuedDist::0                    989623     44.61%     44.61% # Number of insts issued each cycle (Count)
system.cpu.numIssuedDist::1                    168475      7.59%     52.21% # Number of insts issued each cycle (Count)
system.cpu.numIssuedDist::2                    219994      9.92%     62.12% # Number of insts issued each cycle (Count)
system.cpu.numIssuedDist::3                    226924     10.23%     72.35% # Number of insts issued each cycle (Count)
system.cpu.numIssuedDist::4                    204981      9.24%     81.59% # Number of insts issued each cycle (Count)
system.cpu.numIssuedDist::5                    168752      7.61%     89.20% # Number of insts issued each cycle (Count)
system.cpu.numIssuedDist::6                    122800      5.54%     94.74% # Number of insts issued each cycle (Count)
system.cpu.numIssuedDist::7                     69853      3.15%     97.89% # Number of insts issued each cycle (Count)
system.cpu.numIssuedDist::8                     46871      2.11%    100.00% # Number of insts issued each cycle (Count)
system.cpu.numIssuedDist::overflows                 0      0.00%    100.00% # Number of insts issued each cycle (Count)
system.cpu.numIssuedDist::min_value                 0                       # Number of insts issued each cycle (Count)
system.cpu.numIssuedDist::max_value                 8                       # Number of insts issued each cycle (Count)
system.cpu.numIssuedDist::total               2218273                       # Number of insts issued each cycle (Count)
system.cpu.statFuBusy::No_OpClass                   0      0.00%      0.00% # attempts to use FU when none available (Count)
system.cpu.statFuBusy::IntAlu                   45757     69.27%     69.27% # attempts to use FU when none available (Count)
system.cpu.statFuBusy::IntMult                      0      0.00%     69.27% # attempts to use FU when none available (Count)
system.cpu.statFuBusy::IntDiv                       0      0.00%     69.27% # attempts to use FU when none available (Count)
system.cpu.statFuBusy::FloatAdd                     0      0.00%     69.27% # attempts to use FU when none available (Count)
system.cpu.statFuBusy::FloatCmp                     0      0.00%     69.27% # attempts to use FU when none available (Count)
system.cpu.statFuBusy::FloatCvt                     0      0.00%     69.27% # attempts to use FU when none available (Count)
system.cpu.statFuBusy::FloatMult                    0      0.00%     69.27% # attempts to use FU when none available (Count)
system.cpu.statFuBusy::FloatMultAcc                 0      0.00%     69.27% # attempts to use FU when none available (Count)
system.cpu.statFuBusy::FloatDiv                     0      0.00%     69.27% # attempts to use FU when none available (Count)
system.cpu.statFuBusy::FloatMisc                    0      0.00%     69.27% # attempts to use FU when none available (Count)
system.cpu.statFuBusy::FloatSqrt                    0      0.00%     69.27% # attempts to use FU when none available (Count)
system.cpu.statFuBusy::SimdAdd                      2      0.00%     69.28% # attempts to use FU when none available (Count)
system.cpu.statFuBusy::SimdAddAcc                   0      0.00%     69.28% # attempts to use FU when none available (Count)
system.cpu.statFuBusy::SimdAlu                    124      0.19%     69.46% # attempts to use FU when none available (Count)
system.cpu.statFuBusy::SimdCmp                      0      0.00%     69.46% # attempts to use FU when none available (Count)
system.cpu.statFuBusy::SimdCvt                    984      1.49%     70.95% # attempts to use FU when none available (Count)
system.cpu.statFuBusy::SimdMisc                    15      0.02%     70.98% # attempts to use FU when none available (Count)
system.cpu.statFuBusy::SimdMult                     0      0.00%     70.98% # attempts to use FU when none available (Count)
system.cpu.statFuBusy::SimdMultAcc                  0      0.00%     70.98% # attempts to use FU when none available (Count)
system.cpu.statFuBusy::SimdShift                   38      0.06%     71.03% # attempts to use FU when none available (Count)
system.cpu.statFuBusy::SimdShiftAcc                 0      0.00%     71.03% # attempts to use FU when none available (Count)
system.cpu.statFuBusy::SimdDiv                      0      0.00%     71.03% # attempts to use FU when none available (Count)
system.cpu.statFuBusy::SimdSqrt                     0      0.00%     71.03% # attempts to use FU when none available (Count)
system.cpu.statFuBusy::SimdFloatAdd                 0      0.00%     71.03% # attempts to use FU when none available (Count)
system.cpu.statFuBusy::SimdFloatAlu                 0      0.00%     71.03% # attempts to use FU when none available (Count)
system.cpu.statFuBusy::SimdFloatCmp                 0      0.00%     71.03% # attempts to use FU when none available (Count)
system.cpu.statFuBusy::SimdFloatCvt                 0      0.00%     71.03% # attempts to use FU when none available (Count)
system.cpu.statFuBusy::SimdFloatDiv                 0      0.00%     71.03% # attempts to use FU when none available (Count)
system.cpu.statFuBusy::SimdFloatMisc                0      0.00%     71.03% # attempts to use FU when none available (Count)
system.cpu.statFuBusy::SimdFloatMult                0      0.00%     71.03% # attempts to use FU when none available (Count)
system.cpu.statFuBusy::SimdFloatMultAcc             0      0.00%     71.03% # attempts to use FU when none available (Count)
system.cpu.statFuBusy::SimdFloatSqrt                0      0.00%     71.03% # attempts to use FU when none available (Count)
system.cpu.statFuBusy::SimdReduceAdd                0      0.00%     71.03% # attempts to use FU when none available (Count)
system.cpu.statFuBusy::SimdReduceAlu                0      0.00%     71.03% # attempts to use FU when none available (Count)
system.cpu.statFuBusy::SimdReduceCmp                0      0.00%     71.03% # attempts to use FU when none available (Count)
system.cpu.statFuBusy::SimdFloatReduceAdd            0      0.00%     71.03% # attempts to use FU when none available (Count)
system.cpu.statFuBusy::SimdFloatReduceCmp            0      0.00%     71.03% # attempts to use FU when none available (Count)
system.cpu.statFuBusy::SimdAes                      0      0.00%     71.03% # attempts to use FU when none available (Count)
system.cpu.statFuBusy::SimdAesMix                   0      0.00%     71.03% # attempts to use FU when none available (Count)
system.cpu.statFuBusy::SimdSha1Hash                 0      0.00%     71.03% # attempts to use FU when none available (Count)
system.cpu.statFuBusy::SimdSha1Hash2                0      0.00%     71.03% # attempts to use FU when none available (Count)
system.cpu.statFuBusy::SimdSha256Hash               0      0.00%     71.03% # attempts to use FU when none available (Count)
system.cpu.statFuBusy::SimdSha256Hash2              0      0.00%     71.03% # attempts to use FU when none available (Count)
system.cpu.statFuBusy::SimdShaSigma2                0      0.00%     71.03% # attempts to use FU when none available (Count)
system.cpu.statFuBusy::SimdShaSigma3                0      0.00%     71.03% # attempts to use FU when none available (Count)
system.cpu.statFuBusy::SimdPredAlu                  0      0.00%     71.03% # attempts to use FU when none available (Count)
system.cpu.statFuBusy::MemRead                  10705     16.21%     87.24% # attempts to use FU when none available (Count)
system.cpu.statFuBusy::MemWrite                  7706     11.67%     98.91% # attempts to use FU when none available (Count)
system.cpu.statFuBusy::FloatMemRead               495      0.75%     99.65% # attempts to use FU when none available (Count)
system.cpu.statFuBusy::FloatMemWrite              228      0.35%    100.00% # attempts to use FU when none available (Count)
system.cpu.statFuBusy::IprAccess                    0      0.00%    100.00% # attempts to use FU when none available (Count)
system.cpu.statFuBusy::InstPrefetch                 0      0.00%    100.00% # attempts to use FU when none available (Count)
system.cpu.statIssuedInstType_0::No_OpClass        24819      0.55%      0.55% # Number of instructions issued per FU type, per thread (Count)
system.cpu.statIssuedInstType_0::IntAlu       3554842     78.07%     78.61% # Number of instructions issued per FU type, per thread (Count)
system.cpu.statIssuedInstType_0::IntMult           47      0.00%     78.61% # Number of instructions issued per FU type, per thread (Count)
system.cpu.statIssuedInstType_0::IntDiv         42691      0.94%     79.55% # Number of instructions issued per FU type, per thread (Count)
system.cpu.statIssuedInstType_0::FloatAdd         7788      0.17%     79.72% # Number of instructions issued per FU type, per thread (Count)
system.cpu.statIssuedInstType_0::FloatCmp            0      0.00%     79.72% # Number of instructions issued per FU type, per thread (Count)
system.cpu.statIssuedInstType_0::FloatCvt         1312      0.03%     79.75% # Number of instructions issued per FU type, per thread (Count)
system.cpu.statIssuedInstType_0::FloatMult            0      0.00%     79.75% # Number of instructions issued per FU type, per thread (Count)
system.cpu.statIssuedInstType_0::FloatMultAcc            0      0.00%     79.75% # Number of instructions issued per FU type, per thread (Count)
system.cpu.statIssuedInstType_0::FloatDiv            0      0.00%     79.75% # Number of instructions issued per FU type, per thread (Count)
system.cpu.statIssuedInstType_0::FloatMisc            0      0.00%     79.75% # Number of instructions issued per FU type, per thread (Count)
system.cpu.statIssuedInstType_0::FloatSqrt            0      0.00%     79.75% # Number of instructions issued per FU type, per thread (Count)
system.cpu.statIssuedInstType_0::SimdAdd         7835      0.17%     79.92% # Number of instructions issued per FU type, per thread (Count)
system.cpu.statIssuedInstType_0::SimdAddAcc            0      0.00%     79.92% # Number of instructions issued per FU type, per thread (Count)
system.cpu.statIssuedInstType_0::SimdAlu        15543      0.34%     80.26% # Number of instructions issued per FU type, per thread (Count)
system.cpu.statIssuedInstType_0::SimdCmp            8      0.00%     80.26% # Number of instructions issued per FU type, per thread (Count)
system.cpu.statIssuedInstType_0::SimdCvt        16991      0.37%     80.64% # Number of instructions issued per FU type, per thread (Count)
system.cpu.statIssuedInstType_0::SimdMisc        14501      0.32%     80.95% # Number of instructions issued per FU type, per thread (Count)
system.cpu.statIssuedInstType_0::SimdMult            0      0.00%     80.95% # Number of instructions issued per FU type, per thread (Count)
system.cpu.statIssuedInstType_0::SimdMultAcc            0      0.00%     80.95% # Number of instructions issued per FU type, per thread (Count)
system.cpu.statIssuedInstType_0::SimdShift         2252      0.05%     81.00% # Number of instructions issued per FU type, per thread (Count)
system.cpu.statIssuedInstType_0::SimdShiftAcc            0      0.00%     81.00% # Number of instructions issued per FU type, per thread (Count)
system.cpu.statIssuedInstType_0::SimdDiv            0      0.00%     81.00% # Number of instructions issued per FU type, per thread (Count)
system.cpu.statIssuedInstType_0::SimdSqrt            0      0.00%     81.00% # Number of instructions issued per FU type, per thread (Count)
system.cpu.statIssuedInstType_0::SimdFloatAdd            0      0.00%     81.00% # Number of instructions issued per FU type, per thread (Count)
system.cpu.statIssuedInstType_0::SimdFloatAlu            0      0.00%     81.00% # Number of instructions issued per FU type, per thread (Count)
system.cpu.statIssuedInstType_0::SimdFloatCmp            0      0.00%     81.00% # Number of instructions issued per FU type, per thread (Count)
system.cpu.statIssuedInstType_0::SimdFloatCvt            0      0.00%     81.00% # Number of instructions issued per FU type, per thread (Count)
system.cpu.statIssuedInstType_0::SimdFloatDiv            0      0.00%     81.00% # Number of instructions issued per FU type, per thread (Count)
system.cpu.statIssuedInstType_0::SimdFloatMisc            0      0.00%     81.00% # Number of instructions issued per FU type, per thread (Count)
system.cpu.statIssuedInstType_0::SimdFloatMult            0      0.00%     81.00% # Number of instructions issued per FU type, per thread (Count)
system.cpu.statIssuedInstType_0::SimdFloatMultAcc            0      0.00%     81.00% # Number of instructions issued per FU type, per thread (Count)
system.cpu.statIssuedInstType_0::SimdFloatSqrt            0      0.00%     81.00% # Number of instructions issued per FU type, per thread (Count)
system.cpu.statIssuedInstType_0::SimdReduceAdd            0      0.00%     81.00% # Number of instructions issued per FU type, per thread (Count)
system.cpu.statIssuedInstType_0::SimdReduceAlu            0      0.00%     81.00% # Number of instructions issued per FU type, per thread (Count)
system.cpu.statIssuedInstType_0::SimdReduceCmp            0      0.00%     81.00% # Number of instructions issued per FU type, per thread (Count)
system.cpu.statIssuedInstType_0::SimdFloatReduceAdd            0      0.00%     81.00% # Number of instructions issued per FU type, per thread (Count)
system.cpu.statIssuedInstType_0::SimdFloatReduceCmp            0      0.00%     81.00% # Number of instructions issued per FU type, per thread (Count)
system.cpu.statIssuedInstType_0::SimdAes            0      0.00%     81.00% # Number of instructions issued per FU type, per thread (Count)
system.cpu.statIssuedInstType_0::SimdAesMix            0      0.00%     81.00% # Number of instructions issued per FU type, per thread (Count)
system.cpu.statIssuedInstType_0::SimdSha1Hash            0      0.00%     81.00% # Number of instructions issued per FU type, per thread (Count)
system.cpu.statIssuedInstType_0::SimdSha1Hash2            0      0.00%     81.00% # Number of instructions issued per FU type, per thread (Count)
system.cpu.statIssuedInstType_0::SimdSha256Hash            0      0.00%     81.00% # Number of instructions issued per FU type, per thread (Count)
system.cpu.statIssuedInstType_0::SimdSha256Hash2            0      0.00%     81.00% # Number of instructions issued per FU type, per thread (Count)
system.cpu.statIssuedInstType_0::SimdShaSigma2            0      0.00%     81.00% # Number of instructions issued per FU type, per thread (Count)
system.cpu.statIssuedInstType_0::SimdShaSigma3            0      0.00%     81.00% # Number of instructions issued per FU type, per thread (Count)
system.cpu.statIssuedInstType_0::SimdPredAlu            0      0.00%     81.00% # Number of instructions issued per FU type, per thread (Count)
system.cpu.statIssuedInstType_0::MemRead       602467     13.23%     94.23% # Number of instructions issued per FU type, per thread (Count)
system.cpu.statIssuedInstType_0::MemWrite       224078      4.92%     99.15% # Number of instructions issued per FU type, per thread (Count)
system.cpu.statIssuedInstType_0::FloatMemRead        23264      0.51%     99.67% # Number of instructions issued per FU type, per thread (Count)
system.cpu.statIssuedInstType_0::FloatMemWrite        15220      0.33%    100.00% # Number of instructions issued per FU type, per thread (Count)
system.cpu.statIssuedInstType_0::IprAccess            0      0.00%    100.00% # Number of instructions issued per FU type, per thread (Count)
system.cpu.statIssuedInstType_0::InstPrefetch            0      0.00%    100.00% # Number of instructions issued per FU type, per thread (Count)
system.cpu.statIssuedInstType_0::total        4553658                       # Number of instructions issued per FU type, per thread (Count)
system.cpu.issueRate                         1.950668                       # Inst issue rate ((Count/Cycle))
system.cpu.fuBusy                               66054                       # FU busy when requested (Count)
system.cpu.fuBusyRate                        0.014506                       # FU busy rate (busy events/executed inst) ((Count/Count))
system.cpu.intInstQueueReads                 11175048                       # Number of integer instruction queue reads (Count)
system.cpu.intInstQueueWrites                 5857832                       # Number of integer instruction queue writes (Count)
system.cpu.intInstQueueWakeupAccesses         4396435                       # Number of integer instruction queue wakeup accesses (Count)
system.cpu.fpInstQueueReads                    218892                       # Number of floating instruction queue reads (Count)
system.cpu.fpInstQueueWrites                   149588                       # Number of floating instruction queue writes (Count)
system.cpu.fpInstQueueWakeupAccesses           105255                       # Number of floating instruction queue wakeup accesses (Count)
system.cpu.vecInstQueueReads                        0                       # Number of vector instruction queue reads (Count)
system.cpu.vecInstQueueWrites                       0                       # Number of vector instruction queue writes (Count)
system.cpu.vecInstQueueWakeupAccesses               0                       # Number of vector instruction queue wakeup accesses (Count)
system.cpu.intAluAccesses                     4484588                       # Number of integer alu accesses (Count)
system.cpu.fpAluAccesses                       110305                       # Number of floating point alu accesses (Count)
system.cpu.vecAluAccesses                           0                       # Number of vector alu accesses (Count)
system.cpu.numInsts                           4522174                       # Number of executed instructions (Count)
system.cpu.numLoadInsts                        617985                       # Number of load instructions executed (Count)
system.cpu.numSquashedInsts                     31484                       # Number of squashed instructions skipped in execute (Count)
system.cpu.numSwp                                   0                       # Number of swp insts executed (Count)
system.cpu.numNop                                   0                       # Number of nop insts executed (Count)
system.cpu.numRefs                             854406                       # Number of memory reference insts executed (Count)
system.cpu.numBranches                         400848                       # Number of branches executed (Count)
system.cpu.numStoreInsts                       236421                       # Number of stores executed (Count)
system.cpu.numRate                           1.937181                       # Inst execution rate ((Count/Cycle))
system.cpu.timesIdled                            1478                       # Number of times that the entire CPU went into an idle state and unscheduled itself (Count)
system.cpu.idleCycles                          116137                       # Total number of cycles that the CPU has spent unscheduled due to idling (Cycle)
system.cpu.committedInsts                     2221725                       # Number of Instructions Simulated (Count)
system.cpu.committedOps                       3887312                       # Number of Ops (including micro ops) Simulated (Count)
system.cpu.cpi                               1.050720                       # CPI: Cycles Per Instruction ((Cycle/Count))
system.cpu.totalCpi                          1.050720                       # CPI: Total CPI of All Threads ((Cycle/Count))
system.cpu.ipc                               0.951729                       # IPC: Instructions Per Cycle ((Count/Cycle))
system.cpu.totalIpc                          0.951729                       # IPC: Total IPC of All Threads ((Count/Cycle))
system.cpu.intRegfileReads                    7173909                       # Number of integer regfile reads (Count)
system.cpu.intRegfileWrites                   3847420                       # Number of integer regfile writes (Count)
system.cpu.fpRegfileReads                      147462                       # Number of floating regfile reads (Count)
system.cpu.fpRegfileWrites                      81278                       # Number of floating regfile writes (Count)
system.cpu.ccRegfileReads                     2426802                       # number of cc regfile reads (Count)
system.cpu.ccRegfileWrites                    1998042                       # number of cc regfile writes (Count)
system.cpu.miscRegfileReads                   1694433                       # number of misc regfile reads (Count)
system.cpu.miscRegfileWrites                      729                       # number of misc regfile writes (Count)
system.cpu.MemDepUnit__0.insertedLoads         655424                       # Number of loads inserted to the mem dependence unit. (Count)
system.cpu.MemDepUnit__0.insertedStores        255097                       # Number of stores inserted to the mem dependence unit. (Count)
system.cpu.MemDepUnit__0.conflictingLoads        18330                       # Number of conflicting loads. (Count)
system.cpu.MemDepUnit__0.conflictingStores         7830                       # Number of conflicting stores. (Count)
system.cpu.MemDepUnit__1.insertedLoads              0                       # Number of loads inserted to the mem dependence unit. (Count)
system.cpu.MemDepUnit__1.insertedStores             0                       # Number of stores inserted to the mem dependence unit. (Count)
system.cpu.MemDepUnit__1.conflictingLoads            0                       # Number of conflicting loads. (Count)
system.cpu.MemDepUnit__1.conflictingStores            0                       # Number of conflicting stores. (Count)
system.cpu.MemDepUnit__2.insertedLoads              0                       # Number of loads inserted to the mem dependence unit. (Count)
system.cpu.MemDepUnit__2.insertedStores             0                       # Number of stores inserted to the mem dependence unit. (Count)
system.cpu.MemDepUnit__2.conflictingLoads            0                       # Number of conflicting loads. (Count)
system.cpu.MemDepUnit__2.conflictingStores            0                       # Number of conflicting stores. (Count)
system.cpu.MemDepUnit__3.insertedLoads              0                       # Number of loads inserted to the mem dependence unit. (Count)
system.cpu.MemDepUnit__3.insertedStores             0                       # Number of stores inserted to the mem dependence unit. (Count)
system.cpu.MemDepUnit__3.conflictingLoads            0                       # Number of conflicting loads. (Count)
system.cpu.MemDepUnit__3.conflictingStores            0                       # Number of conflicting stores. (Count)
system.cpu.branchPred.lookups                  508176                       # Number of BP lookups (Count)
system.cpu.branchPred.condPredicted            438084                       # Number of conditional branches predicted (Count)
system.cpu.branchPred.condIncorrect             16505                       # Number of conditional branches incorrect (Count)
system.cpu.branchPred.BTBLookups               267469                       # Number of BTB lookups (Count)
system.cpu.branchPred.BTBHits                  264239                       # Number of BTB hits (Count)
system.cpu.branchPred.BTBHitRatio            0.987924                       # BTB Hit Ratio (Ratio)
system.cpu.branchPred.RASUsed                   14217                       # Number of times the RAS was used to get a target. (Count)
system.cpu.branchPred.RASIncorrect                 11                       # Number of incorrect RAS predictions. (Count)
system.cpu.branchPred.indirectLookups           10690                       # Number of indirect predictor lookups. (Count)
system.cpu.branchPred.indirectHits               4902                       # Number of indirect target hits. (Count)
system.cpu.branchPred.indirectMisses             5788                       # Number of indirect misses. (Count)
system.cpu.branchPred.indirectMispredicted         1252                       # Number of mispredicted indirect branches. (Count)
system.cpu.commit.commitSquashedInsts         1055746                       # The number of squashed insts skipped by commit (Count)
system.cpu.commit.commitNonSpecStalls             850                       # The number of times commit has been forced to stall to communicate backwards (Count)
system.cpu.commit.branchMispredicts             15703                       # The number of times a branch was mispredicted (Count)
system.cpu.commit.numCommittedDist::samples      2075649                       # Number of insts commited each cycle (Count)
system.cpu.commit.numCommittedDist::mean     1.872818                       # Number of insts commited each cycle (Count)
system.cpu.commit.numCommittedDist::stdev     2.628661                       # Number of insts commited each cycle (Count)
system.cpu.commit.numCommittedDist::underflows            0      0.00%      0.00% # Number of insts commited each cycle (Count)
system.cpu.commit.numCommittedDist::0         1064181     51.27%     51.27% # Number of insts commited each cycle (Count)
system.cpu.commit.numCommittedDist::1          258724     12.46%     63.73% # Number of insts commited each cycle (Count)
system.cpu.commit.numCommittedDist::2           91713      4.42%     68.15% # Number of insts commited each cycle (Count)
system.cpu.commit.numCommittedDist::3          259859     12.52%     80.67% # Number of insts commited each cycle (Count)
system.cpu.commit.numCommittedDist::4           36395      1.75%     82.43% # Number of insts commited each cycle (Count)
system.cpu.commit.numCommittedDist::5          108351      5.22%     87.65% # Number of insts commited each cycle (Count)
system.cpu.commit.numCommittedDist::6           26683      1.29%     88.93% # Number of insts commited each cycle (Count)
system.cpu.commit.numCommittedDist::7           19792      0.95%     89.89% # Number of insts commited each cycle (Count)
system.cpu.commit.numCommittedDist::8          209951     10.11%    100.00% # Number of insts commited each cycle (Count)
system.cpu.commit.numCommittedDist::overflows            0      0.00%    100.00% # Number of insts commited each cycle (Count)
system.cpu.commit.numCommittedDist::min_value            0                       # Number of insts commited each cycle (Count)
system.cpu.commit.numCommittedDist::max_value            8                       # Number of insts commited each cycle (Count)
system.cpu.commit.numCommittedDist::total      2075649                       # Number of insts commited each cycle (Count)
system.cpu.commit.instsCommitted              2221725                       # Number of instructions committed (Count)
system.cpu.commit.opsCommitted                3887312                       # Number of ops (including micro ops) committed (Count)
system.cpu.commit.memRefs                      721498                       # Number of memory references committed (Count)
system.cpu.commit.loads                        522282                       # Number of loads committed (Count)
system.cpu.commit.amos                              0                       # Number of atomic instructions committed (Count)
system.cpu.commit.membars                          80                       # Number of memory barriers committed (Count)
system.cpu.commit.branches                     366730                       # Number of branches committed (Count)
system.cpu.commit.vectorInstructions                0                       # Number of committed Vector instructions. (Count)
system.cpu.commit.floating                      89532                       # Number of committed floating point instructions. (Count)
system.cpu.commit.integer                     3813283                       # Number of committed integer instructions. (Count)
system.cpu.commit.functionCalls                 11579                       # Number of function calls committed. (Count)
system.cpu.commit.committedInstType_0::No_OpClass        14848      0.38%      0.38% # Class of committed instruction (Count)
system.cpu.commit.committedInstType_0::IntAlu      3056096     78.62%     79.00% # Class of committed instruction (Count)
system.cpu.commit.committedInstType_0::IntMult           33      0.00%     79.00% # Class of committed instruction (Count)
system.cpu.commit.committedInstType_0::IntDiv        39870      1.03%     80.03% # Class of committed instruction (Count)
system.cpu.commit.committedInstType_0::FloatAdd         5671      0.15%     80.17% # Class of committed instruction (Count)
system.cpu.commit.committedInstType_0::FloatCmp            0      0.00%     80.17% # Class of committed instruction (Count)
system.cpu.commit.committedInstType_0::FloatCvt         1296      0.03%     80.20% # Class of committed instruction (Count)
system.cpu.commit.committedInstType_0::FloatMult            0      0.00%     80.20% # Class of committed instruction (Count)
system.cpu.commit.committedInstType_0::FloatMultAcc            0      0.00%     80.20% # Class of committed instruction (Count)
system.cpu.commit.committedInstType_0::FloatDiv            0      0.00%     80.20% # Class of committed instruction (Count)
system.cpu.commit.committedInstType_0::FloatMisc            0      0.00%     80.20% # Class of committed instruction (Count)
system.cpu.commit.committedInstType_0::FloatSqrt            0      0.00%     80.20% # Class of committed instruction (Count)
system.cpu.commit.committedInstType_0::SimdAdd         7102      0.18%     80.39% # Class of committed instruction (Count)
system.cpu.commit.committedInstType_0::SimdAddAcc            0      0.00%     80.39% # Class of committed instruction (Count)
system.cpu.commit.committedInstType_0::SimdAlu        12806      0.33%     80.72% # Class of committed instruction (Count)
system.cpu.commit.committedInstType_0::SimdCmp            6      0.00%     80.72% # Class of committed instruction (Count)
system.cpu.commit.committedInstType_0::SimdCvt        14582      0.38%     81.09% # Class of committed instruction (Count)
system.cpu.commit.committedInstType_0::SimdMisc        12512      0.32%     81.41% # Class of committed instruction (Count)
system.cpu.commit.committedInstType_0::SimdMult            0      0.00%     81.41% # Class of committed instruction (Count)
system.cpu.commit.committedInstType_0::SimdMultAcc            0      0.00%     81.41% # Class of committed instruction (Count)
system.cpu.commit.committedInstType_0::SimdShift          992      0.03%     81.44% # Class of committed instruction (Count)
system.cpu.commit.committedInstType_0::SimdShiftAcc            0      0.00%     81.44% # Class of committed instruction (Count)
system.cpu.commit.committedInstType_0::SimdDiv            0      0.00%     81.44% # Class of committed instruction (Count)
system.cpu.commit.committedInstType_0::SimdSqrt            0      0.00%     81.44% # Class of committed instruction (Count)
system.cpu.commit.committedInstType_0::SimdFloatAdd            0      0.00%     81.44% # Class of committed instruction (Count)
system.cpu.commit.committedInstType_0::SimdFloatAlu            0      0.00%     81.44% # Class of committed instruction (Count)
system.cpu.commit.committedInstType_0::SimdFloatCmp            0      0.00%     81.44% # Class of committed instruction (Count)
system.cpu.commit.committedInstType_0::SimdFloatCvt            0      0.00%     81.44% # Class of committed instruction (Count)
system.cpu.commit.committedInstType_0::SimdFloatDiv            0      0.00%     81.44% # Class of committed instruction (Count)
system.cpu.commit.committedInstType_0::SimdFloatMisc            0      0.00%     81.44% # Class of committed instruction (Count)
system.cpu.commit.committedInstType_0::SimdFloatMult            0      0.00%     81.44% # Class of committed instruction (Count)
system.cpu.commit.committedInstType_0::SimdFloatMultAcc            0      0.00%     81.44% # Class of committed instruction (Count)
system.cpu.commit.committedInstType_0::SimdFloatSqrt            0      0.00%     81.44% # Class of committed instruction (Count)
system.cpu.commit.committedInstType_0::SimdReduceAdd            0      0.00%     81.44% # Class of committed instruction (Count)
system.cpu.commit.committedInstType_0::SimdReduceAlu            0      0.00%     81.44% # Class of committed instruction (Count)
system.cpu.commit.committedInstType_0::SimdReduceCmp            0      0.00%     81.44% # Class of committed instruction (Count)
system.cpu.commit.committedInstType_0::SimdFloatReduceAdd            0      0.00%     81.44% # Class of committed instruction (Count)
system.cpu.commit.committedInstType_0::SimdFloatReduceCmp            0      0.00%     81.44% # Class of committed instruction (Count)
system.cpu.commit.committedInstType_0::SimdAes            0      0.00%     81.44% # Class of committed instruction (Count)
system.cpu.commit.committedInstType_0::SimdAesMix            0      0.00%     81.44% # Class of committed instruction (Count)
system.cpu.commit.committedInstType_0::SimdSha1Hash            0      0.00%     81.44% # Class of committed instruction (Count)
system.cpu.commit.committedInstType_0::SimdSha1Hash2            0      0.00%     81.44% # Class of committed instruction (Count)
system.cpu.commit.committedInstType_0::SimdSha256Hash            0      0.00%     81.44% # Class of committed instruction (Count)
system.cpu.commit.committedInstType_0::SimdSha256Hash2            0      0.00%     81.44% # Class of committed instruction (Count)
system.cpu.commit.committedInstType_0::SimdShaSigma2            0      0.00%     81.44% # Class of committed instruction (Count)
system.cpu.commit.committedInstType_0::SimdShaSigma3            0      0.00%     81.44% # Class of committed instruction (Count)
system.cpu.commit.committedInstType_0::SimdPredAlu            0      0.00%     81.44% # Class of committed instruction (Count)
system.cpu.commit.committedInstType_0::MemRead       504266     12.97%     94.41% # Class of committed instruction (Count)
system.cpu.commit.committedInstType_0::MemWrite       185575      4.77%     99.19% # Class of committed instruction (Count)
system.cpu.commit.committedInstType_0::FloatMemRead        18016      0.46%     99.65% # Class of committed instruction (Count)
system.cpu.commit.committedInstType_0::FloatMemWrite        13641      0.35%    100.00% # Class of committed instruction (Count)
system.cpu.commit.committedInstType_0::IprAccess            0      0.00%    100.00% # Class of committed instruction (Count)
system.cpu.commit.committedInstType_0::InstPrefetch            0      0.00%    100.00% # Class of committed instruction (Count)
system.cpu.commit.committedInstType_0::total      3887312                       # Class of committed instruction (Count)
system.cpu.commit.commitEligibleSamples        209951                       # number cycles where commit BW limit reached (Cycle)
system.cpu.dcache.demandHits::cpu.data         712693                       # number of demand (read+write) hits (Count)
system.cpu.dcache.demandHits::total            712693                       # number of demand (read+write) hits (Count)
system.cpu.dcache.overallHits::cpu.data        712693                       # number of overall hits (Count)
system.cpu.dcache.overallHits::total           712693                       # number of overall hits (Count)
system.cpu.dcache.demandMisses::cpu.data        50957                       # number of demand (read+write) misses (Count)
system.cpu.dcache.demandMisses::total           50957                       # number of demand (read+write) misses (Count)
system.cpu.dcache.overallMisses::cpu.data        50957                       # number of overall misses (Count)
system.cpu.dcache.overallMisses::total          50957                       # number of overall misses (Count)
system.cpu.dcache.demandMissLatency::cpu.data   2393643498                       # number of demand (read+write) miss ticks (Tick)
system.cpu.dcache.demandMissLatency::total   2393643498                       # number of demand (read+write) miss ticks (Tick)
system.cpu.dcache.overallMissLatency::cpu.data   2393643498                       # number of overall miss ticks (Tick)
system.cpu.dcache.overallMissLatency::total   2393643498                       # number of overall miss ticks (Tick)
system.cpu.dcache.demandAccesses::cpu.data       763650                       # number of demand (read+write) accesses (Count)
system.cpu.dcache.demandAccesses::total        763650                       # number of demand (read+write) accesses (Count)
system.cpu.dcache.overallAccesses::cpu.data       763650                       # number of overall (read+write) accesses (Count)
system.cpu.dcache.overallAccesses::total       763650                       # number of overall (read+write) accesses (Count)
system.cpu.dcache.demandMissRate::cpu.data     0.066728                       # miss rate for demand accesses (Ratio)
system.cpu.dcache.demandMissRate::total      0.066728                       # miss rate for demand accesses (Ratio)
system.cpu.dcache.overallMissRate::cpu.data     0.066728                       # miss rate for overall accesses (Ratio)
system.cpu.dcache.overallMissRate::total     0.066728                       # miss rate for overall accesses (Ratio)
system.cpu.dcache.demandAvgMissLatency::cpu.data 46973.791589                       # average overall miss latency ((Cycle/Count))
system.cpu.dcache.demandAvgMissLatency::total 46973.791589                       # average overall miss latency ((Cycle/Count))
system.cpu.dcache.overallAvgMissLatency::cpu.data 46973.791589                       # average overall miss latency ((Cycle/Count))
system.cpu.dcache.overallAvgMissLatency::total 46973.791589                       # average overall miss latency ((Cycle/Count))
system.cpu.dcache.blockedCycles::no_mshrs        21290                       # number of cycles access was blocked (Cycle)
system.cpu.dcache.blockedCycles::no_targets           12                       # number of cycles access was blocked (Cycle)
system.cpu.dcache.blockedCauses::no_mshrs          572                       # number of times access was blocked (Count)
system.cpu.dcache.blockedCauses::no_targets            3                       # number of times access was blocked (Count)
system.cpu.dcache.avgBlocked::no_mshrs      37.220280                       # average number of cycles each access was blocked ((Cycle/Count))
system.cpu.dcache.avgBlocked::no_targets            4                       # average number of cycles each access was blocked ((Cycle/Count))
system.cpu.dcache.writebacks::writebacks         2792                       # number of writebacks (Count)
system.cpu.dcache.writebacks::total              2792                       # number of writebacks (Count)
system.cpu.dcache.demandMshrHits::cpu.data        35829                       # number of demand (read+write) MSHR hits (Count)
system.cpu.dcache.demandMshrHits::total         35829                       # number of demand (read+write) MSHR hits (Count)
system.cpu.dcache.overallMshrHits::cpu.data        35829                       # number of overall MSHR hits (Count)
system.cpu.dcache.overallMshrHits::total        35829                       # number of overall MSHR hits (Count)
system.cpu.dcache.demandMshrMisses::cpu.data        15128                       # number of demand (read+write) MSHR misses (Count)
system.cpu.dcache.demandMshrMisses::total        15128                       # number of demand (read+write) MSHR misses (Count)
system.cpu.dcache.overallMshrMisses::cpu.data        15128                       # number of overall MSHR misses (Count)
system.cpu.dcache.overallMshrMisses::total        15128                       # number of overall MSHR misses (Count)
system.cpu.dcache.demandMshrMissLatency::cpu.data    684810998                       # number of demand (read+write) MSHR miss ticks (Tick)
system.cpu.dcache.demandMshrMissLatency::total    684810998                       # number of demand (read+write) MSHR miss ticks (Tick)
system.cpu.dcache.overallMshrMissLatency::cpu.data    684810998                       # number of overall MSHR miss ticks (Tick)
system.cpu.dcache.overallMshrMissLatency::total    684810998                       # number of overall MSHR miss ticks (Tick)
system.cpu.dcache.demandMshrMissRate::cpu.data     0.019810                       # mshr miss ratio for demand accesses (Ratio)
system.cpu.dcache.demandMshrMissRate::total     0.019810                       # mshr miss ratio for demand accesses (Ratio)
system.cpu.dcache.overallMshrMissRate::cpu.data     0.019810                       # mshr miss ratio for overall accesses (Ratio)
system.cpu.dcache.overallMshrMissRate::total     0.019810                       # mshr miss ratio for overall accesses (Ratio)
system.cpu.dcache.demandAvgMshrMissLatency::cpu.data 45267.781465                       # average overall mshr miss latency ((Cycle/Count))
system.cpu.dcache.demandAvgMshrMissLatency::total 45267.781465                       # average overall mshr miss latency ((Cycle/Count))
system.cpu.dcache.overallAvgMshrMissLatency::cpu.data 45267.781465                       # average overall mshr miss latency ((Cycle/Count))
system.cpu.dcache.overallAvgMshrMissLatency::total 45267.781465                       # average overall mshr miss latency ((Cycle/Count))
system.cpu.dcache.replacements                  14103                       # number of replacements (Count)
system.cpu.dcache.ReadReq.hits::cpu.data       515663                       # number of ReadReq hits (Count)
system.cpu.dcache.ReadReq.hits::total          515663                       # number of ReadReq hits (Count)
system.cpu.dcache.ReadReq.misses::cpu.data        48758                       # number of ReadReq misses (Count)
system.cpu.dcache.ReadReq.misses::total         48758                       # number of ReadReq misses (Count)
system.cpu.dcache.ReadReq.missLatency::cpu.data   2288961000                       # number of ReadReq miss ticks (Tick)
system.cpu.dcache.ReadReq.missLatency::total   2288961000                       # number of ReadReq miss ticks (Tick)
system.cpu.dcache.ReadReq.accesses::cpu.data       564421                       # number of ReadReq accesses(hits+misses) (Count)
system.cpu.dcache.ReadReq.accesses::total       564421                       # number of ReadReq accesses(hits+misses) (Count)
system.cpu.dcache.ReadReq.missRate::cpu.data     0.086386                       # miss rate for ReadReq accesses (Ratio)
system.cpu.dcache.ReadReq.missRate::total     0.086386                       # miss rate for ReadReq accesses (Ratio)
system.cpu.dcache.ReadReq.avgMissLatency::cpu.data 46945.342303                       # average ReadReq miss latency ((Tick/Count))
system.cpu.dcache.ReadReq.avgMissLatency::total 46945.342303                       # average ReadReq miss latency ((Tick/Count))
system.cpu.dcache.ReadReq.mshrHits::cpu.data        35824                       # number of ReadReq MSHR hits (Count)
system.cpu.dcache.ReadReq.mshrHits::total        35824                       # number of ReadReq MSHR hits (Count)
system.cpu.dcache.ReadReq.mshrMisses::cpu.data        12934                       # number of ReadReq MSHR misses (Count)
system.cpu.dcache.ReadReq.mshrMisses::total        12934                       # number of ReadReq MSHR misses (Count)
system.cpu.dcache.ReadReq.mshrMissLatency::cpu.data    582540000                       # number of ReadReq MSHR miss ticks (Tick)
system.cpu.dcache.ReadReq.mshrMissLatency::total    582540000                       # number of ReadReq MSHR miss ticks (Tick)
system.cpu.dcache.ReadReq.mshrMissRate::cpu.data     0.022916                       # mshr miss rate for ReadReq accesses (Ratio)
system.cpu.dcache.ReadReq.mshrMissRate::total     0.022916                       # mshr miss rate for ReadReq accesses (Ratio)
system.cpu.dcache.ReadReq.avgMshrMissLatency::cpu.data 45039.430957                       # average ReadReq mshr miss latency ((Tick/Count))
system.cpu.dcache.ReadReq.avgMshrMissLatency::total 45039.430957                       # average ReadReq mshr miss latency ((Tick/Count))
system.cpu.dcache.WriteReq.hits::cpu.data       197030                       # number of WriteReq hits (Count)
system.cpu.dcache.WriteReq.hits::total         197030                       # number of WriteReq hits (Count)
system.cpu.dcache.WriteReq.misses::cpu.data         2199                       # number of WriteReq misses (Count)
system.cpu.dcache.WriteReq.misses::total         2199                       # number of WriteReq misses (Count)
system.cpu.dcache.WriteReq.missLatency::cpu.data    104682498                       # number of WriteReq miss ticks (Tick)
system.cpu.dcache.WriteReq.missLatency::total    104682498                       # number of WriteReq miss ticks (Tick)
system.cpu.dcache.WriteReq.accesses::cpu.data       199229                       # number of WriteReq accesses(hits+misses) (Count)
system.cpu.dcache.WriteReq.accesses::total       199229                       # number of WriteReq accesses(hits+misses) (Count)
system.cpu.dcache.WriteReq.missRate::cpu.data     0.011038                       # miss rate for WriteReq accesses (Ratio)
system.cpu.dcache.WriteReq.missRate::total     0.011038                       # miss rate for WriteReq accesses (Ratio)
system.cpu.dcache.WriteReq.avgMissLatency::cpu.data 47604.592087                       # average WriteReq miss latency ((Tick/Count))
system.cpu.dcache.WriteReq.avgMissLatency::total 47604.592087                       # average WriteReq miss latency ((Tick/Count))
system.cpu.dcache.WriteReq.mshrHits::cpu.data            5                       # number of WriteReq MSHR hits (Count)
system.cpu.dcache.WriteReq.mshrHits::total            5                       # number of WriteReq MSHR hits (Count)
system.cpu.dcache.WriteReq.mshrMisses::cpu.data         2194                       # number of WriteReq MSHR misses (Count)
system.cpu.dcache.WriteReq.mshrMisses::total         2194                       # number of WriteReq MSHR misses (Count)
system.cpu.dcache.WriteReq.mshrMissLatency::cpu.data    102270998                       # number of WriteReq MSHR miss ticks (Tick)
system.cpu.dcache.WriteReq.mshrMissLatency::total    102270998                       # number of WriteReq MSHR miss ticks (Tick)
system.cpu.dcache.WriteReq.mshrMissRate::cpu.data     0.011012                       # mshr miss rate for WriteReq accesses (Ratio)
system.cpu.dcache.WriteReq.mshrMissRate::total     0.011012                       # mshr miss rate for WriteReq accesses (Ratio)
system.cpu.dcache.WriteReq.avgMshrMissLatency::cpu.data 46613.946217                       # average WriteReq mshr miss latency ((Tick/Count))
system.cpu.dcache.WriteReq.avgMshrMissLatency::total 46613.946217                       # average WriteReq mshr miss latency ((Tick/Count))
system.cpu.dcache.power_state.pwrStateResidencyTicks::UNDEFINED 18446744073709551616                       # Cumulative time (in ticks) in various power states (Tick)
system.cpu.dcache.tags.tagsInUse                  inf                       # Average ticks per tags in use ((Tick/Count))
system.cpu.dcache.tags.totalRefs               727821                       # Total number of references to valid blocks. (Count)
system.cpu.dcache.tags.sampledRefs              15127                       # Sample count of references to valid blocks. (Count)
system.cpu.dcache.tags.avgRefs              48.114035                       # Average number of references to valid blocks. ((Count/Count))
system.cpu.dcache.tags.warmupTick              132500                       # The tick when the warmup percentage was hit. (Tick)
system.cpu.dcache.tags.occupancies::cpu.data          inf                       # Average occupied blocks per tick, per requestor ((Count/Tick))
system.cpu.dcache.tags.avgOccs::writebacks          nan                       # Average percentage of cache occupancy ((Ratio/Tick))
system.cpu.dcache.tags.avgOccs::functional          nan                       # Average percentage of cache occupancy ((Ratio/Tick))
system.cpu.dcache.tags.avgOccs::interrupt          nan                       # Average percentage of cache occupancy ((Ratio/Tick))
system.cpu.dcache.tags.avgOccs::cpu.mmu.dtb.walker          nan                       # Average percentage of cache occupancy ((Ratio/Tick))
system.cpu.dcache.tags.avgOccs::cpu.mmu.itb.walker          nan                       # Average percentage of cache occupancy ((Ratio/Tick))
system.cpu.dcache.tags.avgOccs::cpu.inst          nan                       # Average percentage of cache occupancy ((Ratio/Tick))
system.cpu.dcache.tags.avgOccs::cpu.data          inf                       # Average percentage of cache occupancy ((Ratio/Tick))
system.cpu.dcache.tags.avgOccs::total             nan                       # Average percentage of cache occupancy ((Ratio/Tick))
system.cpu.dcache.tags.occupanciesTaskId::1024         1024                       # Occupied blocks per task id (Count)
system.cpu.dcache.tags.ageTaskId_1024::4         1024                       # Occupied blocks per task id, per block age (Count)
system.cpu.dcache.tags.ratioOccsTaskId::1024            1                       # Ratio of occupied blocks and all blocks, per task id (Ratio)
system.cpu.dcache.tags.tagAccesses            6124327                       # Number of tag accesses (Count)
system.cpu.dcache.tags.dataAccesses           6124327                       # Number of data accesses (Count)
system.cpu.dcache.tags.power_state.pwrStateResidencyTicks::UNDEFINED 18446744073709551616                       # Cumulative time (in ticks) in various power states (Tick)
system.cpu.decode.idleCycles                   335597                       # Number of cycles decode is idle (Cycle)
system.cpu.decode.blockedCycles               1135826                       # Number of cycles decode is blocked (Cycle)
system.cpu.decode.runCycles                    541275                       # Number of cycles decode is running (Cycle)
system.cpu.decode.unblockCycles                189341                       # Number of cycles decode is unblocking (Cycle)
system.cpu.decode.squashCycles                  16234                       # Number of cycles decode is squashing (Cycle)
system.cpu.decode.branchResolved               251719                       # Number of times decode resolved a branch (Count)
system.cpu.decode.branchMispred                  1126                       # Number of times decode detected a branch misprediction (Count)
system.cpu.decode.decodedInsts                5148417                       # Number of instructions handled by decode (Count)
system.cpu.decode.squashedInsts                  5476                       # Number of squashed instructions handled by decode (Count)
system.cpu.dtb_walker_cache.blockedCycles::no_mshrs            0                       # number of cycles access was blocked (Cycle)
system.cpu.dtb_walker_cache.blockedCycles::no_targets            0                       # number of cycles access was blocked (Cycle)
system.cpu.dtb_walker_cache.blockedCauses::no_mshrs            0                       # number of times access was blocked (Count)
system.cpu.dtb_walker_cache.blockedCauses::no_targets            0                       # number of times access was blocked (Count)
system.cpu.dtb_walker_cache.avgBlocked::no_mshrs          nan                       # average number of cycles each access was blocked ((Cycle/Count))
system.cpu.dtb_walker_cache.avgBlocked::no_targets          nan                       # average number of cycles each access was blocked ((Cycle/Count))
system.cpu.dtb_walker_cache.replacements            0                       # number of replacements (Count)
system.cpu.dtb_walker_cache.power_state.pwrStateResidencyTicks::UNDEFINED 18446744073709551616                       # Cumulative time (in ticks) in various power states (Tick)
system.cpu.dtb_walker_cache.tags.tagsInUse          nan                       # Average ticks per tags in use ((Tick/Count))
system.cpu.dtb_walker_cache.tags.totalRefs            0                       # Total number of references to valid blocks. (Count)
system.cpu.dtb_walker_cache.tags.sampledRefs            0                       # Sample count of references to valid blocks. (Count)
system.cpu.dtb_walker_cache.tags.avgRefs          nan                       # Average number of references to valid blocks. ((Count/Count))
system.cpu.dtb_walker_cache.tags.warmupTick            0                       # The tick when the warmup percentage was hit. (Tick)
system.cpu.dtb_walker_cache.tags.avgOccs::writebacks          nan                       # Average percentage of cache occupancy ((Ratio/Tick))
system.cpu.dtb_walker_cache.tags.avgOccs::functional          nan                       # Average percentage of cache occupancy ((Ratio/Tick))
system.cpu.dtb_walker_cache.tags.avgOccs::interrupt          nan                       # Average percentage of cache occupancy ((Ratio/Tick))
system.cpu.dtb_walker_cache.tags.avgOccs::cpu.mmu.dtb.walker          nan                       # Average percentage of cache occupancy ((Ratio/Tick))
system.cpu.dtb_walker_cache.tags.avgOccs::cpu.mmu.itb.walker          nan                       # Average percentage of cache occupancy ((Ratio/Tick))
system.cpu.dtb_walker_cache.tags.avgOccs::cpu.inst          nan                       # Average percentage of cache occupancy ((Ratio/Tick))
system.cpu.dtb_walker_cache.tags.avgOccs::cpu.data          nan                       # Average percentage of cache occupancy ((Ratio/Tick))
system.cpu.dtb_walker_cache.tags.avgOccs::total          nan                       # Average percentage of cache occupancy ((Ratio/Tick))
system.cpu.dtb_walker_cache.tags.tagAccesses            0                       # Number of tag accesses (Count)
system.cpu.dtb_walker_cache.tags.dataAccesses            0                       # Number of data accesses (Count)
system.cpu.dtb_walker_cache.tags.power_state.pwrStateResidencyTicks::UNDEFINED 18446744073709551616                       # Cumulative time (in ticks) in various power states (Tick)
system.cpu.fetch.icacheStallCycles             329250                       # Number of cycles fetch is stalled on an Icache miss (Cycle)
system.cpu.fetch.insts                        3079012                       # Number of instructions fetch has processed (Count)
system.cpu.fetch.branches                      508176                       # Number of branches that fetch encountered (Count)
system.cpu.fetch.predictedBranches             283358                       # Number of branches that fetch has predicted taken (Count)
system.cpu.fetch.cycles                       1868841                       # Number of cycles fetch has run and was not squashing or blocked (Cycle)
system.cpu.fetch.squashCycles                   34678                       # Number of cycles fetch has spent squashing (Cycle)
system.cpu.fetch.miscStallCycles                  336                       # Number of cycles fetch has spent waiting on interrupts, or bad addresses, or out of MSHRs (Cycle)
system.cpu.fetch.pendingTrapStallCycles          2402                       # Number of stall cycles due to pending traps (Cycle)
system.cpu.fetch.pendingQuiesceStallCycles           90                       # Number of stall cycles due to pending quiesce instructions (Cycle)
system.cpu.fetch.icacheWaitRetryStallCycles           15                       # Number of stall cycles due to full MSHR (Cycle)
system.cpu.fetch.cacheLines                    259380                       # Number of cache lines fetched (Count)
system.cpu.fetch.icacheSquashes                  4456                       # Number of outstanding Icache misses that were squashed (Count)
system.cpu.fetch.nisnDist::samples            2218273                       # Number of instructions fetched each cycle (Total) (Count)
system.cpu.fetch.nisnDist::mean              2.428431                       # Number of instructions fetched each cycle (Total) (Count)
system.cpu.fetch.nisnDist::stdev             3.349887                       # Number of instructions fetched each cycle (Total) (Count)
system.cpu.fetch.nisnDist::underflows               0      0.00%      0.00% # Number of instructions fetched each cycle (Total) (Count)
system.cpu.fetch.nisnDist::0                  1343453     60.56%     60.56% # Number of instructions fetched each cycle (Total) (Count)
system.cpu.fetch.nisnDist::1                    48270      2.18%     62.74% # Number of instructions fetched each cycle (Total) (Count)
system.cpu.fetch.nisnDist::2                    49417      2.23%     64.97% # Number of instructions fetched each cycle (Total) (Count)
system.cpu.fetch.nisnDist::3                    41641      1.88%     66.84% # Number of instructions fetched each cycle (Total) (Count)
system.cpu.fetch.nisnDist::4                   117844      5.31%     72.16% # Number of instructions fetched each cycle (Total) (Count)
system.cpu.fetch.nisnDist::5                    55743      2.51%     74.67% # Number of instructions fetched each cycle (Total) (Count)
system.cpu.fetch.nisnDist::6                    34727      1.57%     76.23% # Number of instructions fetched each cycle (Total) (Count)
system.cpu.fetch.nisnDist::7                    60980      2.75%     78.98% # Number of instructions fetched each cycle (Total) (Count)
system.cpu.fetch.nisnDist::8                   466198     21.02%    100.00% # Number of instructions fetched each cycle (Total) (Count)
system.cpu.fetch.nisnDist::overflows                0      0.00%    100.00% # Number of instructions fetched each cycle (Total) (Count)
system.cpu.fetch.nisnDist::min_value                0                       # Number of instructions fetched each cycle (Total) (Count)
system.cpu.fetch.nisnDist::max_value                8                       # Number of instructions fetched each cycle (Total) (Count)
system.cpu.fetch.nisnDist::total              2218273                       # Number of instructions fetched each cycle (Total) (Count)
system.cpu.fetch.branchRate                  0.217689                       # Number of branch fetches per cycle (Ratio)
system.cpu.fetch.rate                        1.318968                       # Number of inst fetches per cycle ((Count/Cycle))
system.cpu.icache.demandHits::cpu.inst         256243                       # number of demand (read+write) hits (Count)
system.cpu.icache.demandHits::total            256243                       # number of demand (read+write) hits (Count)
system.cpu.icache.overallHits::cpu.inst        256243                       # number of overall hits (Count)
system.cpu.icache.overallHits::total           256243                       # number of overall hits (Count)
system.cpu.icache.demandMisses::cpu.inst         3137                       # number of demand (read+write) misses (Count)
system.cpu.icache.demandMisses::total            3137                       # number of demand (read+write) misses (Count)
system.cpu.icache.overallMisses::cpu.inst         3137                       # number of overall misses (Count)
system.cpu.icache.overallMisses::total           3137                       # number of overall misses (Count)
system.cpu.icache.demandMissLatency::cpu.inst    161014999                       # number of demand (read+write) miss ticks (Tick)
system.cpu.icache.demandMissLatency::total    161014999                       # number of demand (read+write) miss ticks (Tick)
system.cpu.icache.overallMissLatency::cpu.inst    161014999                       # number of overall miss ticks (Tick)
system.cpu.icache.overallMissLatency::total    161014999                       # number of overall miss ticks (Tick)
system.cpu.icache.demandAccesses::cpu.inst       259380                       # number of demand (read+write) accesses (Count)
system.cpu.icache.demandAccesses::total        259380                       # number of demand (read+write) accesses (Count)
system.cpu.icache.overallAccesses::cpu.inst       259380                       # number of overall (read+write) accesses (Count)
system.cpu.icache.overallAccesses::total       259380                       # number of overall (read+write) accesses (Count)
system.cpu.icache.demandMissRate::cpu.inst     0.012094                       # miss rate for demand accesses (Ratio)
system.cpu.icache.demandMissRate::total      0.012094                       # miss rate for demand accesses (Ratio)
system.cpu.icache.overallMissRate::cpu.inst     0.012094                       # miss rate for overall accesses (Ratio)
system.cpu.icache.overallMissRate::total     0.012094                       # miss rate for overall accesses (Ratio)
system.cpu.icache.demandAvgMissLatency::cpu.inst 51327.701307                       # average overall miss latency ((Cycle/Count))
system.cpu.icache.demandAvgMissLatency::total 51327.701307                       # average overall miss latency ((Cycle/Count))
system.cpu.icache.overallAvgMissLatency::cpu.inst 51327.701307                       # average overall miss latency ((Cycle/Count))
system.cpu.icache.overallAvgMissLatency::total 51327.701307                       # average overall miss latency ((Cycle/Count))
system.cpu.icache.blockedCycles::no_mshrs          263                       # number of cycles access was blocked (Cycle)
system.cpu.icache.blockedCycles::no_targets            0                       # number of cycles access was blocked (Cycle)
system.cpu.icache.blockedCauses::no_mshrs            8                       # number of times access was blocked (Count)
system.cpu.icache.blockedCauses::no_targets            0                       # number of times access was blocked (Count)
system.cpu.icache.avgBlocked::no_mshrs      32.875000                       # average number of cycles each access was blocked ((Cycle/Count))
system.cpu.icache.avgBlocked::no_targets          nan                       # average number of cycles each access was blocked ((Cycle/Count))
system.cpu.icache.writebacks::writebacks         1963                       # number of writebacks (Count)
system.cpu.icache.writebacks::total              1963                       # number of writebacks (Count)
system.cpu.icache.demandMshrHits::cpu.inst          662                       # number of demand (read+write) MSHR hits (Count)
system.cpu.icache.demandMshrHits::total           662                       # number of demand (read+write) MSHR hits (Count)
system.cpu.icache.overallMshrHits::cpu.inst          662                       # number of overall MSHR hits (Count)
system.cpu.icache.overallMshrHits::total          662                       # number of overall MSHR hits (Count)
system.cpu.icache.demandMshrMisses::cpu.inst         2475                       # number of demand (read+write) MSHR misses (Count)
system.cpu.icache.demandMshrMisses::total         2475                       # number of demand (read+write) MSHR misses (Count)
system.cpu.icache.overallMshrMisses::cpu.inst         2475                       # number of overall MSHR misses (Count)
system.cpu.icache.overallMshrMisses::total         2475                       # number of overall MSHR misses (Count)
system.cpu.icache.demandMshrMissLatency::cpu.inst    129523499                       # number of demand (read+write) MSHR miss ticks (Tick)
system.cpu.icache.demandMshrMissLatency::total    129523499                       # number of demand (read+write) MSHR miss ticks (Tick)
system.cpu.icache.overallMshrMissLatency::cpu.inst    129523499                       # number of overall MSHR miss ticks (Tick)
system.cpu.icache.overallMshrMissLatency::total    129523499                       # number of overall MSHR miss ticks (Tick)
system.cpu.icache.demandMshrMissRate::cpu.inst     0.009542                       # mshr miss ratio for demand accesses (Ratio)
system.cpu.icache.demandMshrMissRate::total     0.009542                       # mshr miss ratio for demand accesses (Ratio)
system.cpu.icache.overallMshrMissRate::cpu.inst     0.009542                       # mshr miss ratio for overall accesses (Ratio)
system.cpu.icache.overallMshrMissRate::total     0.009542                       # mshr miss ratio for overall accesses (Ratio)
system.cpu.icache.demandAvgMshrMissLatency::cpu.inst 52332.726869                       # average overall mshr miss latency ((Cycle/Count))
system.cpu.icache.demandAvgMshrMissLatency::total 52332.726869                       # average overall mshr miss latency ((Cycle/Count))
system.cpu.icache.overallAvgMshrMissLatency::cpu.inst 52332.726869                       # average overall mshr miss latency ((Cycle/Count))
system.cpu.icache.overallAvgMshrMissLatency::total 52332.726869                       # average overall mshr miss latency ((Cycle/Count))
system.cpu.icache.replacements                   1963                       # number of replacements (Count)
system.cpu.icache.ReadReq.hits::cpu.inst       256243                       # number of ReadReq hits (Count)
system.cpu.icache.ReadReq.hits::total          256243                       # number of ReadReq hits (Count)
system.cpu.icache.ReadReq.misses::cpu.inst         3137                       # number of ReadReq misses (Count)
system.cpu.icache.ReadReq.misses::total          3137                       # number of ReadReq misses (Count)
system.cpu.icache.ReadReq.missLatency::cpu.inst    161014999                       # number of ReadReq miss ticks (Tick)
system.cpu.icache.ReadReq.missLatency::total    161014999                       # number of ReadReq miss ticks (Tick)
system.cpu.icache.ReadReq.accesses::cpu.inst       259380                       # number of ReadReq accesses(hits+misses) (Count)
system.cpu.icache.ReadReq.accesses::total       259380                       # number of ReadReq accesses(hits+misses) (Count)
system.cpu.icache.ReadReq.missRate::cpu.inst     0.012094                       # miss rate for ReadReq accesses (Ratio)
system.cpu.icache.ReadReq.missRate::total     0.012094                       # miss rate for ReadReq accesses (Ratio)
system.cpu.icache.ReadReq.avgMissLatency::cpu.inst 51327.701307                       # average ReadReq miss latency ((Tick/Count))
system.cpu.icache.ReadReq.avgMissLatency::total 51327.701307                       # average ReadReq miss latency ((Tick/Count))
system.cpu.icache.ReadReq.mshrHits::cpu.inst          662                       # number of ReadReq MSHR hits (Count)
system.cpu.icache.ReadReq.mshrHits::total          662                       # number of ReadReq MSHR hits (Count)
system.cpu.icache.ReadReq.mshrMisses::cpu.inst         2475                       # number of ReadReq MSHR misses (Count)
system.cpu.icache.ReadReq.mshrMisses::total         2475                       # number of ReadReq MSHR misses (Count)
system.cpu.icache.ReadReq.mshrMissLatency::cpu.inst    129523499                       # number of ReadReq MSHR miss ticks (Tick)
system.cpu.icache.ReadReq.mshrMissLatency::total    129523499                       # number of ReadReq MSHR miss ticks (Tick)
system.cpu.icache.ReadReq.mshrMissRate::cpu.inst     0.009542                       # mshr miss rate for ReadReq accesses (Ratio)
system.cpu.icache.ReadReq.mshrMissRate::total     0.009542                       # mshr miss rate for ReadReq accesses (Ratio)
system.cpu.icache.ReadReq.avgMshrMissLatency::cpu.inst 52332.726869                       # average ReadReq mshr miss latency ((Tick/Count))
system.cpu.icache.ReadReq.avgMshrMissLatency::total 52332.726869                       # average ReadReq mshr miss latency ((Tick/Count))
system.cpu.icache.power_state.pwrStateResidencyTicks::UNDEFINED 18446744073709551616                       # Cumulative time (in ticks) in various power states (Tick)
system.cpu.icache.tags.tagsInUse                  inf                       # Average ticks per tags in use ((Tick/Count))
system.cpu.icache.tags.totalRefs               258718                       # Total number of references to valid blocks. (Count)
system.cpu.icache.tags.sampledRefs               2475                       # Sample count of references to valid blocks. (Count)
system.cpu.icache.tags.avgRefs             104.532525                       # Average number of references to valid blocks. ((Count/Count))
system.cpu.icache.tags.warmupTick               62500                       # The tick when the warmup percentage was hit. (Tick)
system.cpu.icache.tags.occupancies::cpu.inst          inf                       # Average occupied blocks per tick, per requestor ((Count/Tick))
system.cpu.icache.tags.avgOccs::writebacks          nan                       # Average percentage of cache occupancy ((Ratio/Tick))
system.cpu.icache.tags.avgOccs::functional          nan                       # Average percentage of cache occupancy ((Ratio/Tick))
system.cpu.icache.tags.avgOccs::interrupt          nan                       # Average percentage of cache occupancy ((Ratio/Tick))
system.cpu.icache.tags.avgOccs::cpu.mmu.dtb.walker          nan                       # Average percentage of cache occupancy ((Ratio/Tick))
system.cpu.icache.tags.avgOccs::cpu.mmu.itb.walker          nan                       # Average percentage of cache occupancy ((Ratio/Tick))
system.cpu.icache.tags.avgOccs::cpu.inst          inf                       # Average percentage of cache occupancy ((Ratio/Tick))
system.cpu.icache.tags.avgOccs::cpu.data          nan                       # Average percentage of cache occupancy ((Ratio/Tick))
system.cpu.icache.tags.avgOccs::total             nan                       # Average percentage of cache occupancy ((Ratio/Tick))
system.cpu.icache.tags.occupanciesTaskId::1024          511                       # Occupied blocks per task id (Count)
system.cpu.icache.tags.ageTaskId_1024::4          511                       # Occupied blocks per task id, per block age (Count)
system.cpu.icache.tags.ratioOccsTaskId::1024     0.998047                       # Ratio of occupied blocks and all blocks, per task id (Ratio)
system.cpu.icache.tags.tagAccesses             521235                       # Number of tag accesses (Count)
system.cpu.icache.tags.dataAccesses            521235                       # Number of data accesses (Count)
system.cpu.icache.tags.power_state.pwrStateResidencyTicks::UNDEFINED 18446744073709551616                       # Cumulative time (in ticks) in various power states (Tick)
system.cpu.iew.idleCycles                           0                       # Number of cycles IEW is idle (Cycle)
system.cpu.iew.squashCycles                     16234                       # Number of cycles IEW is squashing (Cycle)
system.cpu.iew.blockCycles                     639984                       # Number of cycles IEW is blocking (Cycle)
system.cpu.iew.unblockCycles                    21976                       # Number of cycles IEW is unblocking (Cycle)
system.cpu.iew.dispatchedInsts                4947303                       # Number of instructions dispatched to IQ (Count)
system.cpu.iew.dispSquashedInsts                  937                       # Number of squashed instructions skipped by dispatch (Count)
system.cpu.iew.dispLoadInsts                   655424                       # Number of dispatched load instructions (Count)
system.cpu.iew.dispStoreInsts                  255097                       # Number of dispatched store instructions (Count)
system.cpu.iew.dispNonSpecInsts                   807                       # Number of dispatched non-speculative instructions (Count)
system.cpu.iew.iqFullEvents                      8417                       # Number of times the IQ has become full, causing a stall (Count)
system.cpu.iew.lsqFullEvents                    10545                       # Number of times the LSQ has become full, causing a stall (Count)
system.cpu.iew.memOrderViolationEvents            130                       # Number of memory order violations (Count)
system.cpu.iew.predictedTakenIncorrect           7565                       # Number of branches that were predicted taken incorrectly (Count)
system.cpu.iew.predictedNotTakenIncorrect        11033                       # Number of branches that were predicted not taken incorrectly (Count)
system.cpu.iew.branchMispredicts                18598                       # Number of branch mispredicts detected at execute (Count)
system.cpu.iew.instsToCommit                  4510442                       # Cumulative count of insts sent to commit (Count)
system.cpu.iew.writebackCount                 4501690                       # Cumulative count of insts written-back (Count)
system.cpu.iew.producerInst                   3557651                       # Number of instructions producing a value (Count)
system.cpu.iew.consumerInst                   6609172                       # Number of instructions consuming a value (Count)
system.cpu.iew.wbRate                        1.928406                       # Insts written-back per cycle ((Count/Cycle))
system.cpu.iew.wbFanout                      0.538290                       # Average fanout of values written-back ((Count/Count))
system.cpu.interrupts.clk_domain.clock           8000                       # Clock period in ticks (Tick)
system.cpu.itb_walker_cache.blockedCycles::no_mshrs            0                       # number of cycles access was blocked (Cycle)
system.cpu.itb_walker_cache.blockedCycles::no_targets            0                       # number of cycles access was blocked (Cycle)
system.cpu.itb_walker_cache.blockedCauses::no_mshrs            0                       # number of times access was blocked (Count)
system.cpu.itb_walker_cache.blockedCauses::no_targets            0                       # number of times access was blocked (Count)
system.cpu.itb_walker_cache.avgBlocked::no_mshrs          nan                       # average number of cycles each access was blocked ((Cycle/Count))
system.cpu.itb_walker_cache.avgBlocked::no_targets          nan                       # average number of cycles each access was blocked ((Cycle/Count))
system.cpu.itb_walker_cache.replacements            0                       # number of replacements (Count)
system.cpu.itb_walker_cache.power_state.pwrStateResidencyTicks::UNDEFINED 18446744073709551616                       # Cumulative time (in ticks) in various power states (Tick)
system.cpu.itb_walker_cache.tags.tagsInUse          nan                       # Average ticks per tags in use ((Tick/Count))
system.cpu.itb_walker_cache.tags.totalRefs            0                       # Total number of references to valid blocks. (Count)
system.cpu.itb_walker_cache.tags.sampledRefs            0                       # Sample count of references to valid blocks. (Count)
system.cpu.itb_walker_cache.tags.avgRefs          nan                       # Average number of references to valid blocks. ((Count/Count))
system.cpu.itb_walker_cache.tags.warmupTick            0                       # The tick when the warmup percentage was hit. (Tick)
system.cpu.itb_walker_cache.tags.avgOccs::writebacks          nan                       # Average percentage of cache occupancy ((Ratio/Tick))
system.cpu.itb_walker_cache.tags.avgOccs::functional          nan                       # Average percentage of cache occupancy ((Ratio/Tick))
system.cpu.itb_walker_cache.tags.avgOccs::interrupt          nan                       # Average percentage of cache occupancy ((Ratio/Tick))
system.cpu.itb_walker_cache.tags.avgOccs::cpu.mmu.dtb.walker          nan                       # Average percentage of cache occupancy ((Ratio/Tick))
system.cpu.itb_walker_cache.tags.avgOccs::cpu.mmu.itb.walker          nan                       # Average percentage of cache occupancy ((Ratio/Tick))
system.cpu.itb_walker_cache.tags.avgOccs::cpu.inst          nan                       # Average percentage of cache occupancy ((Ratio/Tick))
[...]
system.l2.ReadExReq.mshrMissRate::total      0.684451                       # mshr miss rate for ReadExReq accesses (Ratio)
system.l2.ReadExReq.avgMshrMissLatency::cpu.data 51039.973351                       # average ReadExReq mshr miss latency ((Tick/Count))
system.l2.ReadExReq.avgMshrMissLatency::total 51039.973351                       # average ReadExReq mshr miss latency ((Tick/Count))
system.l2.ReadSharedReq.hits::cpu.data           4501                       # number of ReadSharedReq hits (Count)
system.l2.ReadSharedReq.hits::total              4501                       # number of ReadSharedReq hits (Count)
system.l2.ReadSharedReq.misses::cpu.data         8433                       # number of ReadSharedReq misses (Count)
system.l2.ReadSharedReq.misses::total            8433                       # number of ReadSharedReq misses (Count)
system.l2.ReadSharedReq.missLatency::cpu.data    515443000                       # number of ReadSharedReq miss ticks (Tick)
system.l2.ReadSharedReq.missLatency::total    515443000                       # number of ReadSharedReq miss ticks (Tick)
system.l2.ReadSharedReq.accesses::cpu.data        12934                       # number of ReadSharedReq accesses(hits+misses) (Count)
system.l2.ReadSharedReq.accesses::total         12934                       # number of ReadSharedReq accesses(hits+misses) (Count)
system.l2.ReadSharedReq.missRate::cpu.data     0.652002                       # miss rate for ReadSharedReq accesses (Ratio)
system.l2.ReadSharedReq.missRate::total      0.652002                       # miss rate for ReadSharedReq accesses (Ratio)
system.l2.ReadSharedReq.avgMissLatency::cpu.data 61122.139215                       # average ReadSharedReq miss latency ((Tick/Count))
system.l2.ReadSharedReq.avgMissLatency::total 61122.139215                       # average ReadSharedReq miss latency ((Tick/Count))
system.l2.ReadSharedReq.mshrMisses::cpu.data         8433                       # number of ReadSharedReq MSHR misses (Count)
system.l2.ReadSharedReq.mshrMisses::total         8433                       # number of ReadSharedReq MSHR misses (Count)
system.l2.ReadSharedReq.mshrMissLatency::cpu.data    431113000                       # number of ReadSharedReq MSHR miss ticks (Tick)
system.l2.ReadSharedReq.mshrMissLatency::total    431113000                       # number of ReadSharedReq MSHR miss ticks (Tick)
system.l2.ReadSharedReq.mshrMissRate::cpu.data     0.652002                       # mshr miss rate for ReadSharedReq accesses (Ratio)
system.l2.ReadSharedReq.mshrMissRate::total     0.652002                       # mshr miss rate for ReadSharedReq accesses (Ratio)
system.l2.ReadSharedReq.avgMshrMissLatency::cpu.data 51122.139215                       # average ReadSharedReq mshr miss latency ((Tick/Count))
system.l2.ReadSharedReq.avgMshrMissLatency::total 51122.139215                       # average ReadSharedReq mshr miss latency ((Tick/Count))
system.l2.UpgradeReq.hits::cpu.data                 1                       # number of UpgradeReq hits (Count)
system.l2.UpgradeReq.hits::total                    1                       # number of UpgradeReq hits (Count)
system.l2.UpgradeReq.accesses::cpu.data             1                       # number of UpgradeReq accesses(hits+misses) (Count)
system.l2.UpgradeReq.accesses::total                1                       # number of UpgradeReq accesses(hits+misses) (Count)
system.l2.WritebackClean.hits::writebacks         1958                       # number of WritebackClean hits (Count)
system.l2.WritebackClean.hits::total             1958                       # number of WritebackClean hits (Count)
system.l2.WritebackClean.accesses::writebacks         1958                       # number of WritebackClean accesses(hits+misses) (Count)
system.l2.WritebackClean.accesses::total         1958                       # number of WritebackClean accesses(hits+misses) (Count)
system.l2.WritebackDirty.hits::writebacks         2792                       # number of WritebackDirty hits (Count)
system.l2.WritebackDirty.hits::total             2792                       # number of WritebackDirty hits (Count)
system.l2.WritebackDirty.accesses::writebacks         2792                       # number of WritebackDirty accesses(hits+misses) (Count)
system.l2.WritebackDirty.accesses::total         2792                       # number of WritebackDirty accesses(hits+misses) (Count)
system.l2.power_state.pwrStateResidencyTicks::UNDEFINED 18446744073709551616                       # Cumulative time (in ticks) in various power states (Tick)
system.l2.tags.tagsInUse                          inf                       # Average ticks per tags in use ((Tick/Count))
system.l2.tags.totalRefs                        33661                       # Total number of references to valid blocks. (Count)
system.l2.tags.sampledRefs                      11906                       # Sample count of references to valid blocks. (Count)
system.l2.tags.avgRefs                       2.827230                       # Average number of references to valid blocks. ((Count/Count))
system.l2.tags.warmupTick                       52000                       # The tick when the warmup percentage was hit. (Tick)
system.l2.tags.occupancies::cpu.inst              inf                       # Average occupied blocks per tick, per requestor ((Count/Tick))
system.l2.tags.occupancies::cpu.data              inf                       # Average occupied blocks per tick, per requestor ((Count/Tick))
system.l2.tags.avgOccs::writebacks                nan                       # Average percentage of cache occupancy ((Ratio/Tick))
system.l2.tags.avgOccs::functional                nan                       # Average percentage of cache occupancy ((Ratio/Tick))
system.l2.tags.avgOccs::interrupt                 nan                       # Average percentage of cache occupancy ((Ratio/Tick))
system.l2.tags.avgOccs::cpu.mmu.dtb.walker          nan                       # Average percentage of cache occupancy ((Ratio/Tick))
system.l2.tags.avgOccs::cpu.mmu.itb.walker          nan                       # Average percentage of cache occupancy ((Ratio/Tick))
system.l2.tags.avgOccs::cpu.inst                  inf                       # Average percentage of cache occupancy ((Ratio/Tick))
system.l2.tags.avgOccs::cpu.data                  inf                       # Average percentage of cache occupancy ((Ratio/Tick))
system.l2.tags.avgOccs::total                     nan                       # Average percentage of cache occupancy ((Ratio/Tick))
system.l2.tags.occupanciesTaskId::1024          11906                       # Occupied blocks per task id (Count)
system.l2.tags.ageTaskId_1024::4                11906                       # Occupied blocks per task id, per block age (Count)
system.l2.tags.ratioOccsTaskId::1024         0.363342                       # Ratio of occupied blocks and all blocks, per task id (Ratio)
system.l2.tags.tagAccesses                     281194                       # Number of tag accesses (Count)
system.l2.tags.dataAccesses                    281194                       # Number of data accesses (Count)
system.l2.tags.power_state.pwrStateResidencyTicks::UNDEFINED 18446744073709551616                       # Cumulative time (in ticks) in various power states (Tick)
system.mem_ctrls.bytesRead::cpu.inst           126208                       # Number of bytes read from this memory (Byte)
system.mem_ctrls.bytesRead::cpu.data           635776                       # Number of bytes read from this memory (Byte)
system.mem_ctrls.bytesRead::total              761984                       # Number of bytes read from this memory (Byte)
system.mem_ctrls.bytesInstRead::cpu.inst       126208                       # Number of instructions bytes read from this memory (Byte)
system.mem_ctrls.bytesInstRead::total          126208                       # Number of instructions bytes read from this memory (Byte)
system.mem_ctrls.numReads::cpu.inst              1972                       # Number of read requests responded to by this memory (Count)
system.mem_ctrls.numReads::cpu.data              9934                       # Number of read requests responded to by this memory (Count)
system.mem_ctrls.numReads::total                11906                       # Number of read requests responded to by this memory (Count)
system.mem_ctrls.bwRead::cpu.inst                   0                       # Total read bandwidth from this memory ((Byte/Second))
system.mem_ctrls.bwRead::cpu.data                   0                       # Total read bandwidth from this memory ((Byte/Second))
system.mem_ctrls.bwRead::total                      0                       # Total read bandwidth from this memory ((Byte/Second))
system.mem_ctrls.bwInstRead::cpu.inst               0                       # Instruction read bandwidth from this memory ((Byte/Second))
system.mem_ctrls.bwInstRead::total                  0                       # Instruction read bandwidth from this memory ((Byte/Second))
system.mem_ctrls.bwTotal::cpu.inst                  0                       # Total bandwidth to/from this memory ((Byte/Second))
system.mem_ctrls.bwTotal::cpu.data                  0                       # Total bandwidth to/from this memory ((Byte/Second))
system.mem_ctrls.bwTotal::total                     0                       # Total bandwidth to/from this memory ((Byte/Second))
system.mem_ctrls.power_state.pwrStateResidencyTicks::UNDEFINED 18446744073709551616                       # Cumulative time (in ticks) in various power states (Tick)
system.membus.transDist::ReadResp               10405                       # Transaction distribution (Count)
system.membus.transDist::ReadExReq               1501                       # Transaction distribution (Count)
system.membus.transDist::ReadExResp              1501                       # Transaction distribution (Count)
system.membus.transDist::ReadSharedReq          10405                       # Transaction distribution (Count)
system.membus.pktCount_system.l2.mem_side_port::system.mem_ctrls.port        23812                       # Packet count per connected requestor and responder (Count)
system.membus.pktCount_system.l2.mem_side_port::total        23812                       # Packet count per connected requestor and responder (Count)
system.membus.pktCount::total                   23812                       # Packet count per connected requestor and responder (Count)
system.membus.pktSize_system.l2.mem_side_port::system.mem_ctrls.port       761984                       # Cumulative packet size per connected requestor and responder (Byte)
system.membus.pktSize_system.l2.mem_side_port::total       761984                       # Cumulative packet size per connected requestor and responder (Byte)
system.membus.pktSize::total                   761984                       # Cumulative packet size per connected requestor and responder (Byte)
system.membus.snoops                                0                       # Total snoops (Count)
system.membus.snoopTraffic                          0                       # Total snoop traffic (Byte)
system.membus.snoopFanout::samples              13173                       # Request fanout histogram (Count)
system.membus.snoopFanout::mean                     0                       # Request fanout histogram (Count)
system.membus.snoopFanout::stdev                    0                       # Request fanout histogram (Count)
system.membus.snoopFanout::underflows               0      0.00%      0.00% # Request fanout histogram (Count)
system.membus.snoopFanout::0                    13173    100.00%    100.00% # Request fanout histogram (Count)
system.membus.snoopFanout::1                        0      0.00%    100.00% # Request fanout histogram (Count)
system.membus.snoopFanout::overflows                0      0.00%    100.00% # Request fanout histogram (Count)
system.membus.snoopFanout::min_value                0                       # Request fanout histogram (Count)
system.membus.snoopFanout::max_value                0                       # Request fanout histogram (Count)
system.membus.snoopFanout::total                13173                       # Request fanout histogram (Count)
system.membus.power_state.pwrStateResidencyTicks::UNDEFINED 18446744073709551616                       # Cumulative time (in ticks) in various power states (Tick)
system.membus.reqLayer2.occupancy            16702504                       # Layer occupancy (ticks) (Tick)
system.membus.reqLayer2.utilization               0.0                       # Layer utilization (Ratio)
system.membus.respLayer1.occupancy           59530000                       # Layer occupancy (ticks) (Tick)
system.membus.respLayer1.utilization              0.0                       # Layer utilization (Ratio)
system.membus.snoop_filter.totRequests          13173                       # Total number of requests made to the snoop filter. (Count)
system.membus.snoop_filter.hitSingleRequests            0                       # Number of requests hitting in the snoop filter with a single holder of the requested data. (Count)
system.membus.snoop_filter.hitMultiRequests            0                       # Number of requests hitting in the snoop filter with multiple (>1) holders of the requested data. (Count)
system.membus.snoop_filter.totSnoops                0                       # Total number of snoops made to the snoop filter. (Count)
system.membus.snoop_filter.hitSingleSnoops            0                       # Number of snoops hitting in the snoop filter with a single holder of the requested data. (Count)
system.membus.snoop_filter.hitMultiSnoops            0                       # Number of snoops hitting in the snoop filter with multiple (>1) holders of the requested data. (Count)
system.tol2bus.transDist::ReadResp              15409                       # Transaction distribution (Count)
system.tol2bus.transDist::WritebackDirty         2792                       # Transaction distribution (Count)
system.tol2bus.transDist::WritebackClean         1963                       # Transaction distribution (Count)
system.tol2bus.transDist::CleanEvict            11311                       # Transaction distribution (Count)
system.tol2bus.transDist::UpgradeReq                1                       # Transaction distribution (Count)
system.tol2bus.transDist::UpgradeResp               1                       # Transaction distribution (Count)
system.tol2bus.transDist::ReadExReq              2193                       # Transaction distribution (Count)
system.tol2bus.transDist::ReadExResp             2193                       # Transaction distribution (Count)
system.tol2bus.transDist::ReadCleanReq           2475                       # Transaction distribution (Count)
system.tol2bus.transDist::ReadSharedReq         12934                       # Transaction distribution (Count)
system.tol2bus.pktCount_system.cpu.icache.mem_side_port::system.l2.cpu_side_port         6910                       # Packet count per connected requestor and responder (Count)
system.tol2bus.pktCount_system.cpu.dcache.mem_side_port::system.l2.cpu_side_port        44359                       # Packet count per connected requestor and responder (Count)
system.tol2bus.pktCount::total                  51269                       # Packet count per connected requestor and responder (Count)
system.tol2bus.pktSize_system.cpu.icache.mem_side_port::system.l2.cpu_side_port       283840                       # Cumulative packet size per connected requestor and responder (Byte)
system.tol2bus.pktSize_system.cpu.dcache.mem_side_port::system.l2.cpu_side_port      1146816                       # Cumulative packet size per connected requestor and responder (Byte)
system.tol2bus.pktSize::total                 1430656                       # Cumulative packet size per connected requestor and responder (Byte)
system.tol2bus.snoops                               3                       # Total snoops (Count)
system.tol2bus.snoopTraffic                       192                       # Total snoop traffic (Byte)
system.tol2bus.snoopFanout::samples             17603                       # Request fanout histogram (Count)
system.tol2bus.snoopFanout::mean             0.000625                       # Request fanout histogram (Count)
system.tol2bus.snoopFanout::stdev            0.024991                       # Request fanout histogram (Count)
system.tol2bus.snoopFanout::underflows              0      0.00%      0.00% # Request fanout histogram (Count)
system.tol2bus.snoopFanout::0                   17592     99.94%     99.94% # Request fanout histogram (Count)
system.tol2bus.snoopFanout::1                      11      0.06%    100.00% # Request fanout histogram (Count)
system.tol2bus.snoopFanout::2                       0      0.00%    100.00% # Request fanout histogram (Count)
system.tol2bus.snoopFanout::3                       0      0.00%    100.00% # Request fanout histogram (Count)
system.tol2bus.snoopFanout::4                       0      0.00%    100.00% # Request fanout histogram (Count)
system.tol2bus.snoopFanout::overflows               0      0.00%    100.00% # Request fanout histogram (Count)
system.tol2bus.snoopFanout::min_value               0                       # Request fanout histogram (Count)
system.tol2bus.snoopFanout::max_value               1                       # Request fanout histogram (Count)
system.tol2bus.snoopFanout::total               17603                       # Request fanout histogram (Count)
system.tol2bus.power_state.pwrStateResidencyTicks::UNDEFINED 18446744073709551616                       # Cumulative time (in ticks) in various power states (Tick)
system.tol2bus.reqLayer0.occupancy           21589500                       # Layer occupancy (ticks) (Tick)
system.tol2bus.reqLayer0.utilization              0.0                       # Layer utilization (Ratio)
system.tol2bus.respLayer0.occupancy           3713498                       # Layer occupancy (ticks) (Tick)
system.tol2bus.respLayer0.utilization             0.0                       # Layer utilization (Ratio)
system.tol2bus.respLayer1.occupancy          22691499                       # Layer occupancy (ticks) (Tick)
system.tol2bus.respLayer1.utilization             0.0                       # Layer utilization (Ratio)
system.tol2bus.snoop_filter.totRequests         33669                       # Total number of requests made to the snoop filter. (Count)
system.tol2bus.snoop_filter.hitSingleRequests        16067                       # Number of requests hitting in the snoop filter with a single holder of the requested data. (Count)
system.tol2bus.snoop_filter.hitMultiRequests           10                       # Number of requests hitting in the snoop filter with multiple (>1) holders of the requested data. (Count)
system.tol2bus.snoop_filter.totSnoops               0                       # Total number of snoops made to the snoop filter. (Count)
system.tol2bus.snoop_filter.hitSingleSnoops            0                       # Number of snoops hitting in the snoop filter with a single holder of the requested data. (Count)
system.tol2bus.snoop_filter.hitMultiSnoops            0                       # Number of snoops hitting in the snoop filter with multiple (>1) holders of the requested data. (Count)
system.voltage_domain.voltage                       1                       # Voltage in Volts (Volt)
system.workload.inst.arm                            0                       # number of arm instructions executed (Count)
system.workload.inst.quiesce                        0                       # number of quiesce instructions executed (Count)

---------- End Simulation Statistics   ----------
