
---------- Begin Simulation Statistics ----------
simSeconds                                   0.006163                       # Number of seconds simulated (Second)
simTicks                                   6163131000                       # Number of ticks simulated (Tick)
finalTick                                  6163131000                       # Number of ticks from beginning of simulation (restored from checkpoints and never reset) (Tick)
simFreq                                  1000000000000                       # The number of ticks per simulated second ((Tick/Second))
hostSeconds                                    407.50                       # Real time elapsed on the host (Second)
hostTickRate                                 15124269                       # The number of ticks simulated per host second (ticks/s) ((Tick/Second))
hostMemory                                    8814332                       # Number of bytes of host memory used (Byte)
simInsts                                     13093343                       # Number of instructions simulated (Count)
simOps                                       24987724                       # Number of ops (including micro ops) simulated (Count)
hostInstRate                                    32131                       # Simulator instruction rate (inst/s) ((Count/Second))
hostOpRate                                      61319                       # Simulator op (including micro ops) rate (op/s) ((Count/Second))
system.clk_domain.clock                          1000                       # Clock period in ticks (Tick)
system.cpu.numCycles                         12326263                       # Number of cpu cycles simulated (Cycle)
system.cpu.numWorkItemsStarted                      0                       # Number of work items this cpu started (Count)
system.cpu.numWorkItemsCompleted                    0                       # Number of work items this cpu completed (Count)
system.cpu.instsAdded                        29682220                       # Number of instructions added to the IQ (excludes non-spec) (Count)
system.cpu.nonSpecInstsAdded                    68341                       # Number of non-speculative instructions added to the IQ (Count)
system.cpu.instsIssued                       28120834                       # Number of instructions issued (Count)
system.cpu.squashedInstsIssued                 111375                       # Number of squashed instructions issued (Count)
system.cpu.squashedInstsExamined              4762822                       # Number of squashed instructions iterated over during squash; mainly for profiling (Count)
system.cpu.squashedOperandsExamined           6566636                       # Number of squashed operands that are examined and possibly removed from graph (Count)
system.cpu.squashedNonSpecRemoved               39180                       # Number of squashed non-spec instructions that were removed (Count)
system.cpu.numIssuedDist::samples            12050137                       # Number of insts issued each cycle (Count)
system.cpu.numIssuedDist::mean               2.333653                       # Number of insts issued each cycle (Count)
system.cpu.numIssuedDist::stdev              2.629081                       # Number of insts issued each cycle (Count)
system.cpu.numIssuedDist::underflows                0      0.00%      0.00% # Number of insts issued each cycle (Count)
system.cpu.numIssuedDist::0                   5530637     45.90%     45.90% # Number of insts issued each cycle (Count)
system.cpu.numIssuedDist::1                    784888      6.51%     52.41% # Number of insts issued each cycle (Count)
system.cpu.numIssuedDist::2                    710866      5.90%     58.31% # Number of insts issued each cycle (Count)
system.cpu.numIssuedDist::3                   1040980      8.64%     66.95% # Number of insts issued each cycle (Count)
system.cpu.numIssuedDist::4                    764551      6.34%     73.29% # Number of insts issued each cycle (Count)
system.cpu.numIssuedDist::5                    899065      7.46%     80.75% # Number of insts issued each cycle (Count)
system.cpu.numIssuedDist::6                   1257604     10.44%     91.19% # Number of insts issued each cycle (Count)
system.cpu.numIssuedDist::7                    800247      6.64%     97.83% # Number of insts issued each cycle (Count)
system.cpu.numIssuedDist::8                    261299      2.17%    100.00% # Number of insts issued each cycle (Count)
system.cpu.numIssuedDist::overflows                 0      0.00%    100.00% # Number of insts issued each cycle (Count)
system.cpu.numIssuedDist::min_value                 0                       # Number of insts issued each cycle (Count)
system.cpu.numIssuedDist::max_value                 8                       # Number of insts issued each cycle (Count)
system.cpu.numIssuedDist::total              12050137                       # Number of insts issued each cycle (Count)
system.cpu.statFuBusy::No_OpClass                   0      0.00%      0.00% # attempts to use FU when none available (Count)
system.cpu.statFuBusy::IntAlu                 1242658     97.13%     97.13% # attempts to use FU when none available (Count)
system.cpu.statFuBusy::IntMult                      0      0.00%     97.13% # attempts to use FU when none available (Count)
system.cpu.statFuBusy::IntDiv                       0      0.00%     97.13% # attempts to use FU when none available (Count)
system.cpu.statFuBusy::FloatAdd                     0      0.00%     97.13% # attempts to use FU when none available (Count)
system.cpu.statFuBusy::FloatCmp                     0      0.00%     97.13% # attempts to use FU when none available (Count)
system.cpu.statFuBusy::FloatCvt                     1      0.00%     97.13% # attempts to use FU when none available (Count)
system.cpu.statFuBusy::FloatMult                    0      0.00%     97.13% # attempts to use FU when none available (Count)
system.cpu.statFuBusy::FloatMultAcc                 0      0.00%     97.13% # attempts to use FU when none available (Count)
system.cpu.statFuBusy::FloatDiv                     0      0.00%     97.13% # attempts to use FU when none available (Count)
system.cpu.statFuBusy::FloatMisc                    0      0.00%     97.13% # attempts to use FU when none available (Count)
system.cpu.statFuBusy::FloatSqrt                    0      0.00%     97.13% # attempts to use FU when none available (Count)
system.cpu.statFuBusy::SimdAdd                      1      0.00%     97.13% # attempts to use FU when none available (Count)
system.cpu.statFuBusy::SimdAddAcc                   0      0.00%     97.13% # attempts to use FU when none available (Count)
system.cpu.statFuBusy::SimdAlu                    130      0.01%     97.14% # attempts to use FU when none available (Count)
system.cpu.statFuBusy::SimdCmp                      0      0.00%     97.14% # attempts to use FU when none available (Count)
system.cpu.statFuBusy::SimdCvt                    976      0.08%     97.22% # attempts to use FU when none available (Count)
system.cpu.statFuBusy::SimdMisc                    14      0.00%     97.22% # attempts to use FU when none available (Count)
system.cpu.statFuBusy::SimdMult                     0      0.00%     97.22% # attempts to use FU when none available (Count)
system.cpu.statFuBusy::SimdMultAcc                  0      0.00%     97.22% # attempts to use FU when none available (Count)
system.cpu.statFuBusy::SimdShift                   23      0.00%     97.22% # attempts to use FU when none available (Count)
system.cpu.statFuBusy::SimdShiftAcc                 0      0.00%     97.22% # attempts to use FU when none available (Count)
system.cpu.statFuBusy::SimdDiv                      0      0.00%     97.22% # attempts to use FU when none available (Count)
system.cpu.statFuBusy::SimdSqrt                     0      0.00%     97.22% # attempts to use FU when none available (Count)
system.cpu.statFuBusy::SimdFloatAdd                 0      0.00%     97.22% # attempts to use FU when none available (Count)
system.cpu.statFuBusy::SimdFloatAlu                 0      0.00%     97.22% # attempts to use FU when none available (Count)
system.cpu.statFuBusy::SimdFloatCmp                 0      0.00%     97.22% # attempts to use FU when none available (Count)
system.cpu.statFuBusy::SimdFloatCvt                 0      0.00%     97.22% # attempts to use FU when none available (Count)
system.cpu.statFuBusy::SimdFloatDiv                 0      0.00%     97.22% # attempts to use FU when none available (Count)
system.cpu.statFuBusy::SimdFloatMisc                0      0.00%     97.22% # attempts to use FU when none available (Count)
system.cpu.statFuBusy::SimdFloatMult                0      0.00%     97.22% # attempts to use FU when none available (Count)
system.cpu.statFuBusy::SimdFloatMultAcc             0      0.00%     97.22% # attempts to use FU when none available (Count)
system.cpu.statFuBusy::SimdFloatSqrt                0      0.00%     97.22% # attempts to use FU when none available (Count)
system.cpu.statFuBusy::SimdReduceAdd                0      0.00%     97.22% # attempts to use FU when none available (Count)
system.cpu.statFuBusy::SimdReduceAlu                0      0.00%     97.22% # attempts to use FU when none available (Count)
system.cpu.statFuBusy::SimdReduceCmp                0      0.00%     97.22% # attempts to use FU when none available (Count)
system.cpu.statFuBusy::SimdFloatReduceAdd            0      0.00%     97.22% # attempts to use FU when none available (Count)
system.cpu.statFuBusy::SimdFloatReduceCmp            0      0.00%     97.22% # attempts to use FU when none available (Count)
system.cpu.statFuBusy::SimdAes                      0      0.00%     97.22% # attempts to use FU when none available (Count)
system.cpu.statFuBusy::SimdAesMix                   0      0.00%     97.22% # attempts to use FU when none available (Count)
system.cpu.statFuBusy::SimdSha1Hash                 0      0.00%     97.22% # attempts to use FU when none available (Count)
system.cpu.statFuBusy::SimdSha1Hash2                0      0.00%     97.22% # attempts to use FU when none available (Count)
system.cpu.statFuBusy::SimdSha256Hash               0      0.00%     97.22% # attempts to use FU when none available (Count)
system.cpu.statFuBusy::SimdSha256Hash2              0      0.00%     97.22% # attempts to use FU when none available (Count)
system.cpu.statFuBusy::SimdShaSigma2                0      0.00%     97.22% # attempts to use FU when none available (Count)
system.cpu.statFuBusy::SimdShaSigma3                0      0.00%     97.22% # attempts to use FU when none available (Count)
system.cpu.statFuBusy::SimdPredAlu                  0      0.00%     97.22% # attempts to use FU when none available (Count)
system.cpu.statFuBusy::MemRead                  25365      1.98%     99.20% # attempts to use FU when none available (Count)
system.cpu.statFuBusy::MemWrite                  9211      0.72%     99.92% # attempts to use FU when none available (Count)
system.cpu.statFuBusy::FloatMemRead               745      0.06%     99.98% # attempts to use FU when none available (Count)
system.cpu.statFuBusy::FloatMemWrite              252      0.02%    100.00% # attempts to use FU when none available (Count)
system.cpu.statFuBusy::IprAccess                    0      0.00%    100.00% # attempts to use FU when none available (Count)
system.cpu.statFuBusy::InstPrefetch                 0      0.00%    100.00% # attempts to use FU when none available (Count)
system.cpu.statIssuedInstType_0::No_OpClass       105808      0.38%      0.38% # Number of instructions issued per FU type, per thread (Count)
system.cpu.statIssuedInstType_0::IntAlu      23806060     84.66%     85.03% # Number of instructions issued per FU type, per thread (Count)
system.cpu.statIssuedInstType_0::IntMult       121633      0.43%     85.47% # Number of instructions issued per FU type, per thread (Count)
system.cpu.statIssuedInstType_0::IntDiv         40481      0.14%     85.61% # Number of instructions issued per FU type, per thread (Count)
system.cpu.statIssuedInstType_0::FloatAdd         8592      0.03%     85.64% # Number of instructions issued per FU type, per thread (Count)
system.cpu.statIssuedInstType_0::FloatCmp            0      0.00%     85.64% # Number of instructions issued per FU type, per thread (Count)
system.cpu.statIssuedInstType_0::FloatCvt         2535      0.01%     85.65% # Number of instructions issued per FU type, per thread (Count)
system.cpu.statIssuedInstType_0::FloatMult            0      0.00%     85.65% # Number of instructions issued per FU type, per thread (Count)
system.cpu.statIssuedInstType_0::FloatMultAcc            0      0.00%     85.65% # Number of instructions issued per FU type, per thread (Count)
system.cpu.statIssuedInstType_0::FloatDiv            0      0.00%     85.65% # Number of instructions issued per FU type, per thread (Count)
system.cpu.statIssuedInstType_0::FloatMisc            0      0.00%     85.65% # Number of instructions issued per FU type, per thread (Count)
system.cpu.statIssuedInstType_0::FloatSqrt            0      0.00%     85.65% # Number of instructions issued per FU type, per thread (Count)
system.cpu.statIssuedInstType_0::SimdAdd         7811      0.03%     85.68% # Number of instructions issued per FU type, per thread (Count)
system.cpu.statIssuedInstType_0::SimdAddAcc            0      0.00%     85.68% # Number of instructions issued per FU type, per thread (Count)
system.cpu.statIssuedInstType_0::SimdAlu        15989      0.06%     85.73% # Number of instructions issued per FU type, per thread (Count)
system.cpu.statIssuedInstType_0::SimdCmp            8      0.00%     85.73% # Number of instructions issued per FU type, per thread (Count)
system.cpu.statIssuedInstType_0::SimdCvt        16940      0.06%     85.79% # Number of instructions issued per FU type, per thread (Count)
system.cpu.statIssuedInstType_0::SimdMisc        14877      0.05%     85.85% # Number of instructions issued per FU type, per thread (Count)
system.cpu.statIssuedInstType_0::SimdMult            0      0.00%     85.85% # Number of instructions issued per FU type, per thread (Count)
system.cpu.statIssuedInstType_0::SimdMultAcc            0      0.00%     85.85% # Number of instructions issued per FU type, per thread (Count)
system.cpu.statIssuedInstType_0::SimdShift         2348      0.01%     85.85% # Number of instructions issued per FU type, per thread (Count)
system.cpu.statIssuedInstType_0::SimdShiftAcc            0      0.00%     85.85% # Number of instructions issued per FU type, per thread (Count)
system.cpu.statIssuedInstType_0::SimdDiv            0      0.00%     85.85% # Number of instructions issued per FU type, per thread (Count)
system.cpu.statIssuedInstType_0::SimdSqrt            0      0.00%     85.85% # Number of instructions issued per FU type, per thread (Count)
system.cpu.statIssuedInstType_0::SimdFloatAdd           10      0.00%     85.85% # Number of instructions issued per FU type, per thread (Count)
system.cpu.statIssuedInstType_0::SimdFloatAlu            0      0.00%     85.85% # Number of instructions issued per FU type, per thread (Count)
system.cpu.statIssuedInstType_0::SimdFloatCmp            0      0.00%     85.85% # Number of instructions issued per FU type, per thread (Count)
system.cpu.statIssuedInstType_0::SimdFloatCvt           12      0.00%     85.85% # Number of instructions issued per FU type, per thread (Count)
system.cpu.statIssuedInstType_0::SimdFloatDiv            4      0.00%     85.85% # Number of instructions issued per FU type, per thread (Count)
system.cpu.statIssuedInstType_0::SimdFloatMisc            0      0.00%     85.85% # Number of instructions issued per FU type, per thread (Count)
system.cpu.statIssuedInstType_0::SimdFloatMult            0      0.00%     85.85% # Number of instructions issued per FU type, per thread (Count)
system.cpu.statIssuedInstType_0::SimdFloatMultAcc            0      0.00%     85.85% # Number of instructions issued per FU type, per thread (Count)
system.cpu.statIssuedInstType_0::SimdFloatSqrt            0      0.00%     85.85% # Number of instructions issued per FU type, per thread (Count)
system.cpu.statIssuedInstType_0::SimdReduceAdd            0      0.00%     85.85% # Number of instructions issued per FU type, per thread (Count)
system.cpu.statIssuedInstType_0::SimdReduceAlu            0      0.00%     85.85% # Number of instructions issued per FU type, per thread (Count)
system.cpu.statIssuedInstType_0::SimdReduceCmp            0      0.00%     85.85% # Number of instructions issued per FU type, per thread (Count)
system.cpu.statIssuedInstType_0::SimdFloatReduceAdd            0      0.00%     85.85% # Number of instructions issued per FU type, per thread (Count)
system.cpu.statIssuedInstType_0::SimdFloatReduceCmp            0      0.00%     85.85% # Number of instructions issued per FU type, per thread (Count)
system.cpu.statIssuedInstType_0::SimdAes            0      0.00%     85.85% # Number of instructions issued per FU type, per thread (Count)
system.cpu.statIssuedInstType_0::SimdAesMix            0      0.00%     85.85% # Number of instructions issued per FU type, per thread (Count)
system.cpu.statIssuedInstType_0::SimdSha1Hash            0      0.00%     85.85% # Number of instructions issued per FU type, per thread (Count)
system.cpu.statIssuedInstType_0::SimdSha1Hash2            0      0.00%     85.85% # Number of instructions issued per FU type, per thread (Count)
system.cpu.statIssuedInstType_0::SimdSha256Hash            0      0.00%     85.85% # Number of instructions issued per FU type, per thread (Count)
system.cpu.statIssuedInstType_0::SimdSha256Hash2            0      0.00%     85.85% # Number of instructions issued per FU type, per thread (Count)
system.cpu.statIssuedInstType_0::SimdShaSigma2            0      0.00%     85.85% # Number of instructions issued per FU type, per thread (Count)
system.cpu.statIssuedInstType_0::SimdShaSigma3            0      0.00%     85.85% # Number of instructions issued per FU type, per thread (Count)
system.cpu.statIssuedInstType_0::SimdPredAlu            0      0.00%     85.85% # Number of instructions issued per FU type, per thread (Count)
system.cpu.statIssuedInstType_0::MemRead      2826004     10.05%     95.90% # Number of instructions issued per FU type, per thread (Count)
system.cpu.statIssuedInstType_0::MemWrite      1108571      3.94%     99.85% # Number of instructions issued per FU type, per thread (Count)
system.cpu.statIssuedInstType_0::FloatMemRead        25442      0.09%     99.94% # Number of instructions issued per FU type, per thread (Count)
system.cpu.statIssuedInstType_0::FloatMemWrite        17709      0.06%    100.00% # Number of instructions issued per FU type, per thread (Count)
system.cpu.statIssuedInstType_0::IprAccess            0      0.00%    100.00% # Number of instructions issued per FU type, per thread (Count)
system.cpu.statIssuedInstType_0::InstPrefetch            0      0.00%    100.00% # Number of instructions issued per FU type, per thread (Count)
system.cpu.statIssuedInstType_0::total       28120834                       # Number of instructions issued per FU type, per thread (Count)
system.cpu.issueRate                         2.281375                       # Inst issue rate ((Count/Cycle))
system.cpu.fuBusy                             1279376                       # FU busy when requested (Count)
system.cpu.fuBusyRate                        0.045496                       # FU busy rate (busy events/executed inst) ((Count/Count))
system.cpu.intInstQueueReads                 69447958                       # Number of integer instruction queue reads (Count)
system.cpu.intInstQueueWrites                34352986                       # Number of integer instruction queue writes (Count)
system.cpu.intInstQueueWakeupAccesses        27760831                       # Number of integer instruction queue wakeup accesses (Count)
system.cpu.fpInstQueueReads                    234598                       # Number of floating instruction queue reads (Count)
system.cpu.fpInstQueueWrites                   160632                       # Number of floating instruction queue writes (Count)
system.cpu.fpInstQueueWakeupAccesses           112681                       # Number of floating instruction queue wakeup accesses (Count)
system.cpu.vecInstQueueReads                        0                       # Number of vector instruction queue reads (Count)
system.cpu.vecInstQueueWrites                       0                       # Number of vector instruction queue writes (Count)
system.cpu.vecInstQueueWakeupAccesses               0                       # Number of vector instruction queue wakeup accesses (Count)
system.cpu.intAluAccesses                    29176127                       # Number of integer alu accesses (Count)
system.cpu.fpAluAccesses                       118275                       # Number of floating point alu accesses (Count)
system.cpu.vecAluAccesses                           0                       # Number of vector alu accesses (Count)
system.cpu.numInsts                          27979678                       # Number of executed instructions (Count)
system.cpu.numLoadInsts                       2813210                       # Number of load instructions executed (Count)
system.cpu.numSquashedInsts                    141156                       # Number of squashed instructions skipped in execute (Count)
system.cpu.numSwp                                   0                       # Number of swp insts executed (Count)
system.cpu.numNop                                   0                       # Number of nop insts executed (Count)
system.cpu.numRefs                            3929035                       # Number of memory reference insts executed (Count)
system.cpu.numBranches                        3381971                       # Number of branches executed (Count)
system.cpu.numStoreInsts                      1115825                       # Number of stores executed (Count)
system.cpu.numRate                           2.269924                       # Inst execution rate ((Count/Cycle))
system.cpu.timesIdled                            2466                       # Number of times that the entire CPU went into an idle state and unscheduled itself (Count)
system.cpu.idleCycles                          276126                       # Total number of cycles that the CPU has spent unscheduled due to idling (Cycle)
system.cpu.committedInsts                    13093343                       # Number of Instructions Simulated (Count)
system.cpu.committedOps                      24987724                       # Number of Ops (including micro ops) Simulated (Count)
system.cpu.cpi                               0.941415                       # CPI: Cycles Per Instruction ((Cycle/Count))
system.cpu.totalCpi                          0.941415                       # CPI: Total CPI of All Threads ((Cycle/Count))
system.cpu.ipc                               1.062231                       # IPC: Instructions Per Cycle ((Count/Cycle))
system.cpu.totalIpc                          1.062231                       # IPC: Total IPC of All Threads ((Count/Cycle))
system.cpu.intRegfileReads                   39834015                       # Number of integer regfile reads (Count)
system.cpu.intRegfileWrites                  23404292                       # Number of integer regfile writes (Count)
system.cpu.fpRegfileReads                      152752                       # Number of floating regfile reads (Count)
system.cpu.fpRegfileWrites                      84976                       # Number of floating regfile writes (Count)
system.cpu.ccRegfileReads                    19101298                       # number of cc regfile reads (Count)
system.cpu.ccRegfileWrites                   12156120                       # number of cc regfile writes (Count)
system.cpu.miscRegfileReads                  10999223                       # number of misc regfile reads (Count)
system.cpu.miscRegfileWrites                     1296                       # number of misc regfile writes (Count)
system.cpu.MemDepUnit__0.insertedLoads        3053277                       # Number of loads inserted to the mem dependence unit. (Count)
system.cpu.MemDepUnit__0.insertedStores       1215291                       # Number of stores inserted to the mem dependence unit. (Count)
system.cpu.MemDepUnit__0.conflictingLoads       224307                       # Number of conflicting loads. (Count)
system.cpu.MemDepUnit__0.conflictingStores        68266                       # Number of conflicting stores. (Count)
system.cpu.MemDepUnit__1.insertedLoads              0                       # Number of loads inserted to the mem dependence unit. (Count)
system.cpu.MemDepUnit__1.insertedStores             0                       # Number of stores inserted to the mem dependence unit. (Count)
system.cpu.MemDepUnit__1.conflictingLoads            0                       # Number of conflicting loads. (Count)
system.cpu.MemDepUnit__1.conflictingStores            0                       # Number of conflicting stores. (Count)
system.cpu.MemDepUnit__2.insertedLoads              0                       # Number of loads inserted to the mem dependence unit. (Count)
system.cpu.MemDepUnit__2.insertedStores             0                       # Number of stores inserted to the mem dependence unit. (Count)
system.cpu.MemDepUnit__2.conflictingLoads            0                       # Number of conflicting loads. (Count)
system.cpu.MemDepUnit__2.conflictingStores            0                       # Number of conflicting stores. (Count)
system.cpu.MemDepUnit__3.insertedLoads              0                       # Number of loads inserted to the mem dependence unit. (Count)
system.cpu.MemDepUnit__3.insertedStores             0                       # Number of stores inserted to the mem dependence unit. (Count)
system.cpu.MemDepUnit__3.conflictingLoads            0                       # Number of conflicting loads. (Count)
system.cpu.MemDepUnit__3.conflictingStores            0                       # Number of conflicting stores. (Count)
system.cpu.branchPred.lookups                 3973994                       # Number of BP lookups (Count)
system.cpu.branchPred.condPredicted           3698298                       # Number of conditional branches predicted (Count)
system.cpu.branchPred.condIncorrect             81999                       # Number of conditional branches incorrect (Count)
system.cpu.branchPred.BTBLookups              2391757                       # Number of BTB lookups (Count)
system.cpu.branchPred.BTBHits                 2387024                       # Number of BTB hits (Count)
system.cpu.branchPred.BTBHitRatio            0.998021                       # BTB Hit Ratio (Ratio)
system.cpu.branchPred.RASUsed                   49483                       # Number of times the RAS was used to get a target. (Count)
system.cpu.branchPred.RASIncorrect                 23                       # Number of incorrect RAS predictions. (Count)
system.cpu.branchPred.indirectLookups           47397                       # Number of indirect predictor lookups. (Count)
system.cpu.branchPred.indirectHits              38722                       # Number of indirect target hits. (Count)
system.cpu.branchPred.indirectMisses             8675                       # Number of indirect misses. (Count)
system.cpu.branchPred.indirectMispredicted         1651                       # Number of mispredicted indirect branches. (Count)
system.cpu.commit.commitSquashedInsts         4758366                       # The number of squashed insts skipped by commit (Count)
system.cpu.commit.commitNonSpecStalls           29160                       # The number of times commit has been forced to stall to communicate backwards (Count)
system.cpu.commit.branchMispredicts             81437                       # The number of times a branch was mispredicted (Count)
system.cpu.commit.numCommittedDist::samples     11393181                       # Number of insts commited each cycle (Count)
system.cpu.commit.numCommittedDist::mean     2.193218                       # Number of insts commited each cycle (Count)
system.cpu.commit.numCommittedDist::stdev     3.052281                       # Number of insts commited each cycle (Count)
system.cpu.commit.numCommittedDist::underflows            0      0.00%      0.00% # Number of insts commited each cycle (Count)
system.cpu.commit.numCommittedDist::0         6197239     54.39%     54.39% # Number of insts commited each cycle (Count)
system.cpu.commit.numCommittedDist::1          973899      8.55%     62.94% # Number of insts commited each cycle (Count)
system.cpu.commit.numCommittedDist::2          336300      2.95%     65.89% # Number of insts commited each cycle (Count)
system.cpu.commit.numCommittedDist::3         1026482      9.01%     74.90% # Number of insts commited each cycle (Count)
system.cpu.commit.numCommittedDist::4          275865      2.42%     77.33% # Number of insts commited each cycle (Count)
system.cpu.commit.numCommittedDist::5          310996      2.73%     80.05% # Number of insts commited each cycle (Count)
system.cpu.commit.numCommittedDist::6          202631      1.78%     81.83% # Number of insts commited each cycle (Count)
system.cpu.commit.numCommittedDist::7          170599      1.50%     83.33% # Number of insts commited each cycle (Count)
system.cpu.commit.numCommittedDist::8         1899170     16.67%    100.00% # Number of insts commited each cycle (Count)
system.cpu.commit.numCommittedDist::overflows            0      0.00%    100.00% # Number of insts commited each cycle (Count)
system.cpu.commit.numCommittedDist::min_value            0                       # Number of insts commited each cycle (Count)
system.cpu.commit.numCommittedDist::max_value            8                       # Number of insts commited each cycle (Count)
system.cpu.commit.numCommittedDist::total     11393181                       # Number of insts commited each cycle (Count)
system.cpu.commit.instsCommitted             13093343                       # Number of instructions committed (Count)
system.cpu.commit.opsCommitted               24987724                       # Number of ops (including micro ops) committed (Count)
system.cpu.commit.memRefs                     3436531                       # Number of memory references committed (Count)
system.cpu.commit.loads                       2425840                       # Number of loads committed (Count)
system.cpu.commit.amos                              0                       # Number of atomic instructions committed (Count)
system.cpu.commit.membars                       18576                       # Number of memory barriers committed (Count)
system.cpu.commit.branches                    3174388                       # Number of branches committed (Count)
system.cpu.commit.vectorInstructions                0                       # Number of committed Vector instructions. (Count)
system.cpu.commit.floating                      96484                       # Number of committed floating point instructions. (Count)
system.cpu.commit.integer                    24822528                       # Number of committed integer instructions. (Count)
system.cpu.commit.functionCalls                 44854                       # Number of function calls committed. (Count)
system.cpu.commit.committedInstType_0::No_OpClass        87205      0.35%      0.35% # Class of committed instruction (Count)
system.cpu.commit.committedInstType_0::IntAlu     21247992     85.03%     85.38% # Class of committed instruction (Count)
system.cpu.commit.committedInstType_0::IntMult       120804      0.48%     85.87% # Class of committed instruction (Count)
system.cpu.commit.committedInstType_0::IntDiv        37798      0.15%     86.02% # Class of committed instruction (Count)
system.cpu.commit.committedInstType_0::FloatAdd         6363      0.03%     86.04% # Class of committed instruction (Count)
system.cpu.commit.committedInstType_0::FloatCmp            0      0.00%     86.04% # Class of committed instruction (Count)
system.cpu.commit.committedInstType_0::FloatCvt         2304      0.01%     86.05% # Class of committed instruction (Count)
system.cpu.commit.committedInstType_0::FloatMult            0      0.00%     86.05% # Class of committed instruction (Count)
system.cpu.commit.committedInstType_0::FloatMultAcc            0      0.00%     86.05% # Class of committed instruction (Count)
system.cpu.commit.committedInstType_0::FloatDiv            0      0.00%     86.05% # Class of committed instruction (Count)
system.cpu.commit.committedInstType_0::FloatMisc            0      0.00%     86.05% # Class of committed instruction (Count)
system.cpu.commit.committedInstType_0::FloatSqrt            0      0.00%     86.05% # Class of committed instruction (Count)
system.cpu.commit.committedInstType_0::SimdAdd         7130      0.03%     86.08% # Class of committed instruction (Count)
system.cpu.commit.committedInstType_0::SimdAddAcc            0      0.00%     86.08% # Class of committed instruction (Count)
system.cpu.commit.committedInstType_0::SimdAlu        13046      0.05%     86.13% # Class of committed instruction (Count)
system.cpu.commit.committedInstType_0::SimdCmp            6      0.00%     86.13% # Class of committed instruction (Count)
system.cpu.commit.committedInstType_0::SimdCvt        14648      0.06%     86.19% # Class of committed instruction (Count)
system.cpu.commit.committedInstType_0::SimdMisc        12815      0.05%     86.24% # Class of committed instruction (Count)
system.cpu.commit.committedInstType_0::SimdMult            0      0.00%     86.24% # Class of committed instruction (Count)
system.cpu.commit.committedInstType_0::SimdMultAcc            0      0.00%     86.24% # Class of committed instruction (Count)
system.cpu.commit.committedInstType_0::SimdShift         1070      0.00%     86.25% # Class of committed instruction (Count)
system.cpu.commit.committedInstType_0::SimdShiftAcc            0      0.00%     86.25% # Class of committed instruction (Count)
system.cpu.commit.committedInstType_0::SimdDiv            0      0.00%     86.25% # Class of committed instruction (Count)
system.cpu.commit.committedInstType_0::SimdSqrt            0      0.00%     86.25% # Class of committed instruction (Count)
system.cpu.commit.committedInstType_0::SimdFloatAdd            4      0.00%     86.25% # Class of committed instruction (Count)
system.cpu.commit.committedInstType_0::SimdFloatAlu            0      0.00%     86.25% # Class of committed instruction (Count)
system.cpu.commit.committedInstType_0::SimdFloatCmp            0      0.00%     86.25% # Class of committed instruction (Count)
system.cpu.commit.committedInstType_0::SimdFloatCvt            6      0.00%     86.25% # Class of committed instruction (Count)
system.cpu.commit.committedInstType_0::SimdFloatDiv            2      0.00%     86.25% # Class of committed instruction (Count)
system.cpu.commit.committedInstType_0::SimdFloatMisc            0      0.00%     86.25% # Class of committed instruction (Count)
system.cpu.commit.committedInstType_0::SimdFloatMult            0      0.00%     86.25% # Class of committed instruction (Count)
system.cpu.commit.committedInstType_0::SimdFloatMultAcc            0      0.00%     86.25% # Class of committed instruction (Count)
system.cpu.commit.committedInstType_0::SimdFloatSqrt            0      0.00%     86.25% # Class of committed instruction (Count)
system.cpu.commit.committedInstType_0::SimdReduceAdd            0      0.00%     86.25% # Class of committed instruction (Count)
system.cpu.commit.committedInstType_0::SimdReduceAlu            0      0.00%     86.25% # Class of committed instruction (Count)
system.cpu.commit.committedInstType_0::SimdReduceCmp            0      0.00%     86.25% # Class of committed instruction (Count)
system.cpu.commit.committedInstType_0::SimdFloatReduceAdd            0      0.00%     86.25% # Class of committed instruction (Count)
system.cpu.commit.committedInstType_0::SimdFloatReduceCmp            0      0.00%     86.25% # Class of committed instruction (Count)
system.cpu.commit.committedInstType_0::SimdAes            0      0.00%     86.25% # Class of committed instruction (Count)
system.cpu.commit.committedInstType_0::SimdAesMix            0      0.00%     86.25% # Class of committed instruction (Count)
system.cpu.commit.committedInstType_0::SimdSha1Hash            0      0.00%     86.25% # Class of committed instruction (Count)
system.cpu.commit.committedInstType_0::SimdSha1Hash2            0      0.00%     86.25% # Class of committed instruction (Count)
system.cpu.commit.committedInstType_0::SimdSha256Hash            0      0.00%     86.25% # Class of committed instruction (Count)
system.cpu.commit.committedInstType_0::SimdSha256Hash2            0      0.00%     86.25% # Class of committed instruction (Count)
system.cpu.commit.committedInstType_0::SimdShaSigma2            0      0.00%     86.25% # Class of committed instruction (Count)
system.cpu.commit.committedInstType_0::SimdShaSigma3            0      0.00%     86.25% # Class of committed instruction (Count)
system.cpu.commit.committedInstType_0::SimdPredAlu            0      0.00%     86.25% # Class of committed instruction (Count)
system.cpu.commit.committedInstType_0::MemRead      2405753      9.63%     95.87% # Class of committed instruction (Count)
system.cpu.commit.committedInstType_0::MemWrite       994700      3.98%     99.86% # Class of committed instruction (Count)
system.cpu.commit.committedInstType_0::FloatMemRead        20087      0.08%     99.94% # Class of committed instruction (Count)
system.cpu.commit.committedInstType_0::FloatMemWrite        15991      0.06%    100.00% # Class of committed instruction (Count)
system.cpu.commit.committedInstType_0::IprAccess            0      0.00%    100.00% # Class of committed instruction (Count)
system.cpu.commit.committedInstType_0::InstPrefetch            0      0.00%    100.00% # Class of committed instruction (Count)
system.cpu.commit.committedInstType_0::total     24987724                       # Class of committed instruction (Count)
system.cpu.commit.commitEligibleSamples       1899170                       # number cycles where commit BW limit reached (Cycle)
system.cpu.dcache.demandHits::cpu.data        3354871                       # number of demand (read+write) hits (Count)
system.cpu.dcache.demandHits::total           3354871                       # number of demand (read+write) hits (Count)
system.cpu.dcache.overallHits::cpu.data       3354871                       # number of overall hits (Count)
system.cpu.dcache.overallHits::total          3354871                       # number of overall hits (Count)
system.cpu.dcache.demandMisses::cpu.data       385737                       # number of demand (read+write) misses (Count)
system.cpu.dcache.demandMisses::total          385737                       # number of demand (read+write) misses (Count)
system.cpu.dcache.overallMisses::cpu.data       385737                       # number of overall misses (Count)
system.cpu.dcache.overallMisses::total         385737                       # number of overall misses (Count)
system.cpu.dcache.demandMissLatency::cpu.data  15828347970                       # number of demand (read+write) miss ticks (Tick)
system.cpu.dcache.demandMissLatency::total  15828347970                       # number of demand (read+write) miss ticks (Tick)
system.cpu.dcache.overallMissLatency::cpu.data  15828347970                       # number of overall miss ticks (Tick)
system.cpu.dcache.overallMissLatency::total  15828347970                       # number of overall miss ticks (Tick)
system.cpu.dcache.demandAccesses::cpu.data      3740608                       # number of demand (read+write) accesses (Count)
system.cpu.dcache.demandAccesses::total       3740608                       # number of demand (read+write) accesses (Count)
system.cpu.dcache.overallAccesses::cpu.data      3740608                       # number of overall (read+write) accesses (Count)
system.cpu.dcache.overallAccesses::total      3740608                       # number of overall (read+write) accesses (Count)
system.cpu.dcache.demandMissRate::cpu.data     0.103121                       # miss rate for demand accesses (Ratio)
system.cpu.dcache.demandMissRate::total      0.103121                       # miss rate for demand accesses (Ratio)
system.cpu.dcache.overallMissRate::cpu.data     0.103121                       # miss rate for overall accesses (Ratio)
system.cpu.dcache.overallMissRate::total     0.103121                       # miss rate for overall accesses (Ratio)
system.cpu.dcache.demandAvgMissLatency::cpu.data 41034.041251                       # average overall miss latency ((Cycle/Count))
system.cpu.dcache.demandAvgMissLatency::total 41034.041251                       # average overall miss latency ((Cycle/Count))
system.cpu.dcache.overallAvgMissLatency::cpu.data 41034.041251                       # average overall miss latency ((Cycle/Count))
system.cpu.dcache.overallAvgMissLatency::total 41034.041251                       # average overall miss latency ((Cycle/Count))
system.cpu.dcache.blockedCycles::no_mshrs        55504                       # number of cycles access was blocked (Cycle)
system.cpu.dcache.blockedCycles::no_targets         2097                       # number of cycles access was blocked (Cycle)
system.cpu.dcache.blockedCauses::no_mshrs         1807                       # number of times access was blocked (Count)
system.cpu.dcache.blockedCauses::no_targets           72                       # number of times access was blocked (Count)
system.cpu.dcache.avgBlocked::no_mshrs      30.716104                       # average number of cycles each access was blocked ((Cycle/Count))
system.cpu.dcache.avgBlocked::no_targets    29.125000                       # average number of cycles each access was blocked ((Cycle/Count))
system.cpu.dcache.writebacks::writebacks        47982                       # number of writebacks (Count)
system.cpu.dcache.writebacks::total             47982                       # number of writebacks (Count)
system.cpu.dcache.demandMshrHits::cpu.data       287742                       # number of demand (read+write) MSHR hits (Count)
system.cpu.dcache.demandMshrHits::total        287742                       # number of demand (read+write) MSHR hits (Count)
system.cpu.dcache.overallMshrHits::cpu.data       287742                       # number of overall MSHR hits (Count)
system.cpu.dcache.overallMshrHits::total       287742                       # number of overall MSHR hits (Count)
system.cpu.dcache.demandMshrMisses::cpu.data        97995                       # number of demand (read+write) MSHR misses (Count)
system.cpu.dcache.demandMshrMisses::total        97995                       # number of demand (read+write) MSHR misses (Count)
system.cpu.dcache.overallMshrMisses::cpu.data        97995                       # number of overall MSHR misses (Count)
system.cpu.dcache.overallMshrMisses::total        97995                       # number of overall MSHR misses (Count)
system.cpu.dcache.demandMshrMissLatency::cpu.data   4386312470                       # number of demand (read+write) MSHR miss ticks (Tick)
system.cpu.dcache.demandMshrMissLatency::total   4386312470                       # number of demand (read+write) MSHR miss ticks (Tick)
system.cpu.dcache.overallMshrMissLatency::cpu.data   4386312470                       # number of overall MSHR miss ticks (Tick)
system.cpu.dcache.overallMshrMissLatency::total   4386312470                       # number of overall MSHR miss ticks (Tick)
system.cpu.dcache.demandMshrMissRate::cpu.data     0.026198                       # mshr miss ratio for demand accesses (Ratio)
system.cpu.dcache.demandMshrMissRate::total     0.026198                       # mshr miss ratio for demand accesses (Ratio)
system.cpu.dcache.overallMshrMissRate::cpu.data     0.026198                       # mshr miss ratio for overall accesses (Ratio)
system.cpu.dcache.overallMshrMissRate::total     0.026198                       # mshr miss ratio for overall accesses (Ratio)
system.cpu.dcache.demandAvgMshrMissLatency::cpu.data 44760.574213                       # average overall mshr miss latency ((Cycle/Count))
system.cpu.dcache.demandAvgMshrMissLatency::total 44760.574213                       # average overall mshr miss latency ((Cycle/Count))
system.cpu.dcache.overallAvgMshrMissLatency::cpu.data 44760.574213                       # average overall mshr miss latency ((Cycle/Count))
system.cpu.dcache.overallAvgMshrMissLatency::total 44760.574213                       # average overall mshr miss latency ((Cycle/Count))
system.cpu.dcache.replacements                  93832                       # number of replacements (Count)
system.cpu.dcache.ReadReq.hits::cpu.data      2373106                       # number of ReadReq hits (Count)
system.cpu.dcache.ReadReq.hits::total         2373106                       # number of ReadReq hits (Count)
system.cpu.dcache.ReadReq.misses::cpu.data       356798                       # number of ReadReq misses (Count)
system.cpu.dcache.ReadReq.misses::total        356798                       # number of ReadReq misses (Count)
system.cpu.dcache.ReadReq.missLatency::cpu.data  14170026500                       # number of ReadReq miss ticks (Tick)
system.cpu.dcache.ReadReq.missLatency::total  14170026500                       # number of ReadReq miss ticks (Tick)
system.cpu.dcache.ReadReq.accesses::cpu.data      2729904                       # number of ReadReq accesses(hits+misses) (Count)
system.cpu.dcache.ReadReq.accesses::total      2729904                       # number of ReadReq accesses(hits+misses) (Count)
system.cpu.dcache.ReadReq.missRate::cpu.data     0.130700                       # miss rate for ReadReq accesses (Ratio)
system.cpu.dcache.ReadReq.missRate::total     0.130700                       # miss rate for ReadReq accesses (Ratio)
system.cpu.dcache.ReadReq.avgMissLatency::cpu.data 39714.422446                       # average ReadReq miss latency ((Tick/Count))
system.cpu.dcache.ReadReq.avgMissLatency::total 39714.422446                       # average ReadReq miss latency ((Tick/Count))
system.cpu.dcache.ReadReq.mshrHits::cpu.data       287731                       # number of ReadReq MSHR hits (Count)
system.cpu.dcache.ReadReq.mshrHits::total       287731                       # number of ReadReq MSHR hits (Count)
system.cpu.dcache.ReadReq.mshrMisses::cpu.data        69067                       # number of ReadReq MSHR misses (Count)
system.cpu.dcache.ReadReq.mshrMisses::total        69067                       # number of ReadReq MSHR misses (Count)
system.cpu.dcache.ReadReq.mshrMissLatency::cpu.data   2757133500                       # number of ReadReq MSHR miss ticks (Tick)
system.cpu.dcache.ReadReq.mshrMissLatency::total   2757133500                       # number of ReadReq MSHR miss ticks (Tick)
system.cpu.dcache.ReadReq.mshrMissRate::cpu.data     0.025300                       # mshr miss rate for ReadReq accesses (Ratio)
system.cpu.dcache.ReadReq.mshrMissRate::total     0.025300                       # mshr miss rate for ReadReq accesses (Ratio)
system.cpu.dcache.ReadReq.avgMshrMissLatency::cpu.data 39919.693920                       # average ReadReq mshr miss latency ((Tick/Count))
system.cpu.dcache.ReadReq.avgMshrMissLatency::total 39919.693920                       # average ReadReq mshr miss latency ((Tick/Count))
system.cpu.dcache.WriteReq.hits::cpu.data       981765                       # number of WriteReq hits (Count)
system.cpu.dcache.WriteReq.hits::total         981765                       # number of WriteReq hits (Count)
system.cpu.dcache.WriteReq.misses::cpu.data        28939                       # number of WriteReq misses (Count)
system.cpu.dcache.WriteReq.misses::total        28939                       # number of WriteReq misses (Count)
system.cpu.dcache.WriteReq.missLatency::cpu.data   1658321470                       # number of WriteReq miss ticks (Tick)
system.cpu.dcache.WriteReq.missLatency::total   1658321470                       # number of WriteReq miss ticks (Tick)
system.cpu.dcache.WriteReq.accesses::cpu.data      1010704                       # number of WriteReq accesses(hits+misses) (Count)
system.cpu.dcache.WriteReq.accesses::total      1010704                       # number of WriteReq accesses(hits+misses) (Count)
system.cpu.dcache.WriteReq.missRate::cpu.data     0.028633                       # miss rate for WriteReq accesses (Ratio)
system.cpu.dcache.WriteReq.missRate::total     0.028633                       # miss rate for WriteReq accesses (Ratio)
system.cpu.dcache.WriteReq.avgMissLatency::cpu.data 57304.035039                       # average WriteReq miss latency ((Tick/Count))
system.cpu.dcache.WriteReq.avgMissLatency::total 57304.035039                       # average WriteReq miss latency ((Tick/Count))
system.cpu.dcache.WriteReq.mshrHits::cpu.data           11                       # number of WriteReq MSHR hits (Count)
system.cpu.dcache.WriteReq.mshrHits::total           11                       # number of WriteReq MSHR hits (Count)
system.cpu.dcache.WriteReq.mshrMisses::cpu.data        28928                       # number of WriteReq MSHR misses (Count)
system.cpu.dcache.WriteReq.mshrMisses::total        28928                       # number of WriteReq MSHR misses (Count)
system.cpu.dcache.WriteReq.mshrMissLatency::cpu.data   1629178970                       # number of WriteReq MSHR miss ticks (Tick)
system.cpu.dcache.WriteReq.mshrMissLatency::total   1629178970                       # number of WriteReq MSHR miss ticks (Tick)
system.cpu.dcache.WriteReq.mshrMissRate::cpu.data     0.028622                       # mshr miss rate for WriteReq accesses (Ratio)
system.cpu.dcache.WriteReq.mshrMissRate::total     0.028622                       # mshr miss rate for WriteReq accesses (Ratio)
system.cpu.dcache.WriteReq.avgMshrMissLatency::cpu.data 56318.410191                       # average WriteReq mshr miss latency ((Tick/Count))
system.cpu.dcache.WriteReq.avgMshrMissLatency::total 56318.410191                       # average WriteReq mshr miss latency ((Tick/Count))
system.cpu.dcache.power_state.pwrStateResidencyTicks::UNDEFINED   6163131000                       # Cumulative time (in ticks) in various power states (Tick)
system.cpu.dcache.tags.tagsInUse           508.533395                       # Average ticks per tags in use ((Tick/Count))
system.cpu.dcache.tags.totalRefs              3453685                       # Total number of references to valid blocks. (Count)
system.cpu.dcache.tags.sampledRefs              94344                       # Sample count of references to valid blocks. (Count)
system.cpu.dcache.tags.avgRefs              36.607362                       # Average number of references to valid blocks. ((Count/Count))
system.cpu.dcache.tags.warmupTick              198000                       # The tick when the warmup percentage was hit. (Tick)
system.cpu.dcache.tags.occupancies::cpu.data   508.533395                       # Average occupied blocks per tick, per requestor ((Count/Tick))
system.cpu.dcache.tags.avgOccs::cpu.data     0.993229                       # Average percentage of cache occupancy ((Ratio/Tick))
system.cpu.dcache.tags.avgOccs::total        0.993229                       # Average percentage of cache occupancy ((Ratio/Tick))
system.cpu.dcache.tags.occupanciesTaskId::1024          512                       # Occupied blocks per task id (Count)
system.cpu.dcache.tags.ageTaskId_1024::0          105                       # Occupied blocks per task id, per block age (Count)
system.cpu.dcache.tags.ageTaskId_1024::1          406                       # Occupied blocks per task id, per block age (Count)
system.cpu.dcache.tags.ageTaskId_1024::2            1                       # Occupied blocks per task id, per block age (Count)
system.cpu.dcache.tags.ratioOccsTaskId::1024            1                       # Ratio of occupied blocks and all blocks, per task id (Ratio)
system.cpu.dcache.tags.tagAccesses            7575560                       # Number of tag accesses (Count)
system.cpu.dcache.tags.dataAccesses           7575560                       # Number of data accesses (Count)
system.cpu.dcache.tags.power_state.pwrStateResidencyTicks::UNDEFINED   6163131000                       # Cumulative time (in ticks) in various power states (Tick)
system.cpu.decode.idleCycles                  1362744                       # Number of cycles decode is idle (Cycle)
system.cpu.decode.blockedCycles               5919671                       # Number of cycles decode is blocked (Cycle)
system.cpu.decode.runCycles                   4164572                       # Number of cycles decode is running (Cycle)
system.cpu.decode.unblockCycles                520876                       # Number of cycles decode is unblocking (Cycle)
system.cpu.decode.squashCycles                  82274                       # Number of cycles decode is squashing (Cycle)
system.cpu.decode.branchResolved              2293323                       # Number of times decode resolved a branch (Count)
system.cpu.decode.branchMispred                  1558                       # Number of times decode detected a branch misprediction (Count)
system.cpu.decode.decodedInsts               30954593                       # Number of instructions handled by decode (Count)
system.cpu.decode.squashedInsts                  7251                       # Number of squashed instructions handled by decode (Count)
system.cpu.dtb_walker_cache.blockedCycles::no_mshrs            0                       # number of cycles access was blocked (Cycle)
system.cpu.dtb_walker_cache.blockedCycles::no_targets            0                       # number of cycles access was blocked (Cycle)
system.cpu.dtb_walker_cache.blockedCauses::no_mshrs            0                       # number of times access was blocked (Count)
system.cpu.dtb_walker_cache.blockedCauses::no_targets            0                       # number of times access was blocked (Count)
system.cpu.dtb_walker_cache.avgBlocked::no_mshrs          nan                       # average number of cycles each access was blocked ((Cycle/Count))
system.cpu.dtb_walker_cache.avgBlocked::no_targets          nan                       # average number of cycles each access was blocked ((Cycle/Count))
system.cpu.dtb_walker_cache.replacements            0                       # number of replacements (Count)
system.cpu.dtb_walker_cache.power_state.pwrStateResidencyTicks::UNDEFINED   6163131000                       # Cumulative time (in ticks) in various power states (Tick)
system.cpu.dtb_walker_cache.tags.tagsInUse            0                       # Average ticks per tags in use ((Tick/Count))
system.cpu.dtb_walker_cache.tags.totalRefs            0                       # Total number of references to valid blocks. (Count)
system.cpu.dtb_walker_cache.tags.sampledRefs            0                       # Sample count of references to valid blocks. (Count)
system.cpu.dtb_walker_cache.tags.avgRefs          nan                       # Average number of references to valid blocks. ((Count/Count))
system.cpu.dtb_walker_cache.tags.warmupTick            0                       # The tick when the warmup percentage was hit. (Tick)
system.cpu.dtb_walker_cache.tags.tagAccesses            0                       # Number of tag accesses (Count)
system.cpu.dtb_walker_cache.tags.dataAccesses            0                       # Number of data accesses (Count)
system.cpu.dtb_walker_cache.tags.power_state.pwrStateResidencyTicks::UNDEFINED   6163131000                       # Cumulative time (in ticks) in various power states (Tick)
system.cpu.fetch.icacheStallCycles            1359224                       # Number of cycles fetch is stalled on an Icache miss (Cycle)
system.cpu.fetch.insts                       17134606                       # Number of instructions fetch has processed (Count)
system.cpu.fetch.branches                     3973994                       # Number of branches that fetch encountered (Count)
system.cpu.fetch.predictedBranches            2475229                       # Number of branches that fetch has predicted taken (Count)
system.cpu.fetch.cycles                      10598866                       # Number of cycles fetch has run and was not squashing or blocked (Cycle)
system.cpu.fetch.squashCycles                  167572                       # Number of cycles fetch has spent squashing (Cycle)
system.cpu.fetch.miscStallCycles                 1074                       # Number of cycles fetch has spent waiting on interrupts, or bad addresses, or out of MSHRs (Cycle)
system.cpu.fetch.pendingTrapStallCycles          6923                       # Number of stall cycles due to pending traps (Cycle)
system.cpu.fetch.pendingQuiesceStallCycles           22                       # Number of stall cycles due to pending quiesce instructions (Cycle)
system.cpu.fetch.icacheWaitRetryStallCycles          242                       # Number of stall cycles due to full MSHR (Cycle)
system.cpu.fetch.cacheLines                   1228700                       # Number of cache lines fetched (Count)
system.cpu.fetch.icacheSquashes                 12850                       # Number of outstanding Icache misses that were squashed (Count)
system.cpu.fetch.nisnDist::samples           12050137                       # Number of instructions fetched each cycle (Total) (Count)
system.cpu.fetch.nisnDist::mean              2.677828                       # Number of instructions fetched each cycle (Total) (Count)
system.cpu.fetch.nisnDist::stdev             3.369455                       # Number of instructions fetched each cycle (Total) (Count)
system.cpu.fetch.nisnDist::underflows               0      0.00%      0.00% # Number of instructions fetched each cycle (Total) (Count)
system.cpu.fetch.nisnDist::0                  6631081     55.03%     55.03% # Number of instructions fetched each cycle (Total) (Count)
system.cpu.fetch.nisnDist::1                   265063      2.20%     57.23% # Number of instructions fetched each cycle (Total) (Count)
system.cpu.fetch.nisnDist::2                   507467      4.21%     61.44% # Number of instructions fetched each cycle (Total) (Count)
system.cpu.fetch.nisnDist::3                   532602      4.42%     65.86% # Number of instructions fetched each cycle (Total) (Count)
system.cpu.fetch.nisnDist::4                   226102      1.88%     67.74% # Number of instructions fetched each cycle (Total) (Count)
system.cpu.fetch.nisnDist::5                   243050      2.02%     69.75% # Number of instructions fetched each cycle (Total) (Count)
system.cpu.fetch.nisnDist::6                   740322      6.14%     75.90% # Number of instructions fetched each cycle (Total) (Count)
system.cpu.fetch.nisnDist::7                   406800      3.38%     79.27% # Number of instructions fetched each cycle (Total) (Count)
system.cpu.fetch.nisnDist::8                  2497650     20.73%    100.00% # Number of instructions fetched each cycle (Total) (Count)
system.cpu.fetch.nisnDist::overflows                0      0.00%    100.00% # Number of instructions fetched each cycle (Total) (Count)
system.cpu.fetch.nisnDist::min_value                0                       # Number of instructions fetched each cycle (Total) (Count)
system.cpu.fetch.nisnDist::max_value                8                       # Number of instructions fetched each cycle (Total) (Count)
system.cpu.fetch.nisnDist::total             12050137                       # Number of instructions fetched each cycle (Total) (Count)
system.cpu.fetch.branchRate                  0.322401                       # Number of branch fetches per cycle (Ratio)
system.cpu.fetch.rate                        1.390089                       # Number of inst fetches per cycle ((Count/Cycle))
system.cpu.icache.demandHits::cpu.inst        1224033                       # number of demand (read+write) hits (Count)
system.cpu.icache.demandHits::total           1224033                       # number of demand (read+write) hits (Count)
system.cpu.icache.overallHits::cpu.inst       1224033                       # number of overall hits (Count)
system.cpu.icache.overallHits::total          1224033                       # number of overall hits (Count)
system.cpu.icache.demandMisses::cpu.inst         4665                       # number of demand (read+write) misses (Count)
system.cpu.icache.demandMisses::total            4665                       # number of demand (read+write) misses (Count)
system.cpu.icache.overallMisses::cpu.inst         4665                       # number of overall misses (Count)
system.cpu.icache.overallMisses::total           4665                       # number of overall misses (Count)
system.cpu.icache.demandMissLatency::cpu.inst    345447996                       # number of demand (read+write) miss ticks (Tick)
system.cpu.icache.demandMissLatency::total    345447996                       # number of demand (read+write) miss ticks (Tick)
system.cpu.icache.overallMissLatency::cpu.inst    345447996                       # number of overall miss ticks (Tick)
system.cpu.icache.overallMissLatency::total    345447996                       # number of overall miss ticks (Tick)
system.cpu.icache.demandAccesses::cpu.inst      1228698                       # number of demand (read+write) accesses (Count)
system.cpu.icache.demandAccesses::total       1228698                       # number of demand (read+write) accesses (Count)
system.cpu.icache.overallAccesses::cpu.inst      1228698                       # number of overall (read+write) accesses (Count)
system.cpu.icache.overallAccesses::total      1228698                       # number of overall (read+write) accesses (Count)
system.cpu.icache.demandMissRate::cpu.inst     0.003797                       # miss rate for demand accesses (Ratio)
system.cpu.icache.demandMissRate::total      0.003797                       # miss rate for demand accesses (Ratio)
system.cpu.icache.overallMissRate::cpu.inst     0.003797                       # miss rate for overall accesses (Ratio)
system.cpu.icache.overallMissRate::total     0.003797                       # miss rate for overall accesses (Ratio)
system.cpu.icache.demandAvgMissLatency::cpu.inst 74051.017363                       # average overall miss latency ((Cycle/Count))
system.cpu.icache.demandAvgMissLatency::total 74051.017363                       # average overall miss latency ((Cycle/Count))
system.cpu.icache.overallAvgMissLatency::cpu.inst 74051.017363                       # average overall miss latency ((Cycle/Count))
system.cpu.icache.overallAvgMissLatency::total 74051.017363                       # average overall miss latency ((Cycle/Count))
system.cpu.icache.blockedCycles::no_mshrs         1600                       # number of cycles access was blocked (Cycle)
system.cpu.icache.blockedCycles::no_targets            0                       # number of cycles access was blocked (Cycle)
system.cpu.icache.blockedCauses::no_mshrs           27                       # number of times access was blocked (Count)
system.cpu.icache.blockedCauses::no_targets            0                       # number of times access was blocked (Count)
system.cpu.icache.avgBlocked::no_mshrs      59.259259                       # average number of cycles each access was blocked ((Cycle/Count))
system.cpu.icache.avgBlocked::no_targets          nan                       # average number of cycles each access was blocked ((Cycle/Count))
system.cpu.icache.writebacks::writebacks         3211                       # number of writebacks (Count)
system.cpu.icache.writebacks::total              3211                       # number of writebacks (Count)
system.cpu.icache.demandMshrHits::cpu.inst          941                       # number of demand (read+write) MSHR hits (Count)
system.cpu.icache.demandMshrHits::total           941                       # number of demand (read+write) MSHR hits (Count)
system.cpu.icache.overallMshrHits::cpu.inst          941                       # number of overall MSHR hits (Count)
system.cpu.icache.overallMshrHits::total          941                       # number of overall MSHR hits (Count)
system.cpu.icache.demandMshrMisses::cpu.inst         3724                       # number of demand (read+write) MSHR misses (Count)
system.cpu.icache.demandMshrMisses::total         3724                       # number of demand (read+write) MSHR misses (Count)
system.cpu.icache.overallMshrMisses::cpu.inst         3724                       # number of overall MSHR misses (Count)
system.cpu.icache.overallMshrMisses::total         3724                       # number of overall MSHR misses (Count)
system.cpu.icache.demandMshrMissLatency::cpu.inst    277633496                       # number of demand (read+write) MSHR miss ticks (Tick)
system.cpu.icache.demandMshrMissLatency::total    277633496                       # number of demand (read+write) MSHR miss ticks (Tick)
system.cpu.icache.overallMshrMissLatency::cpu.inst    277633496                       # number of overall MSHR miss ticks (Tick)
system.cpu.icache.overallMshrMissLatency::total    277633496                       # number of overall MSHR miss ticks (Tick)
system.cpu.icache.demandMshrMissRate::cpu.inst     0.003031                       # mshr miss ratio for demand accesses (Ratio)
system.cpu.icache.demandMshrMissRate::total     0.003031                       # mshr miss ratio for demand accesses (Ratio)
system.cpu.icache.overallMshrMissRate::cpu.inst     0.003031                       # mshr miss ratio for overall accesses (Ratio)
system.cpu.icache.overallMshrMissRate::total     0.003031                       # mshr miss ratio for overall accesses (Ratio)
system.cpu.icache.demandAvgMshrMissLatency::cpu.inst 74552.496241                       # average overall mshr miss latency ((Cycle/Count))
system.cpu.icache.demandAvgMshrMissLatency::total 74552.496241                       # average overall mshr miss latency ((Cycle/Count))
system.cpu.icache.overallAvgMshrMissLatency::cpu.inst 74552.496241                       # average overall mshr miss latency ((Cycle/Count))
system.cpu.icache.overallAvgMshrMissLatency::total 74552.496241                       # average overall mshr miss latency ((Cycle/Count))
system.cpu.icache.replacements                   3211                       # number of replacements (Count)
system.cpu.icache.ReadReq.hits::cpu.inst      1224033                       # number of ReadReq hits (Count)
system.cpu.icache.ReadReq.hits::total         1224033                       # number of ReadReq hits (Count)
system.cpu.icache.ReadReq.misses::cpu.inst         4665                       # number of ReadReq misses (Count)
system.cpu.icache.ReadReq.misses::total          4665                       # number of ReadReq misses (Count)
system.cpu.icache.ReadReq.missLatency::cpu.inst    345447996                       # number of ReadReq miss ticks (Tick)
system.cpu.icache.ReadReq.missLatency::total    345447996                       # number of ReadReq miss ticks (Tick)
system.cpu.icache.ReadReq.accesses::cpu.inst      1228698                       # number of ReadReq accesses(hits+misses) (Count)
system.cpu.icache.ReadReq.accesses::total      1228698                       # number of ReadReq accesses(hits+misses) (Count)
system.cpu.icache.ReadReq.missRate::cpu.inst     0.003797                       # miss rate for ReadReq accesses (Ratio)
system.cpu.icache.ReadReq.missRate::total     0.003797                       # miss rate for ReadReq accesses (Ratio)
system.cpu.icache.ReadReq.avgMissLatency::cpu.inst 74051.017363                       # average ReadReq miss latency ((Tick/Count))
system.cpu.icache.ReadReq.avgMissLatency::total 74051.017363                       # average ReadReq miss latency ((Tick/Count))
system.cpu.icache.ReadReq.mshrHits::cpu.inst          941                       # number of ReadReq MSHR hits (Count)
system.cpu.icache.ReadReq.mshrHits::total          941                       # number of ReadReq MSHR hits (Count)
system.cpu.icache.ReadReq.mshrMisses::cpu.inst         3724                       # number of ReadReq MSHR misses (Count)
system.cpu.icache.ReadReq.mshrMisses::total         3724                       # number of ReadReq MSHR misses (Count)
system.cpu.icache.ReadReq.mshrMissLatency::cpu.inst    277633496                       # number of ReadReq MSHR miss ticks (Tick)
system.cpu.icache.ReadReq.mshrMissLatency::total    277633496                       # number of ReadReq MSHR miss ticks (Tick)
system.cpu.icache.ReadReq.mshrMissRate::cpu.inst     0.003031                       # mshr miss rate for ReadReq accesses (Ratio)
system.cpu.icache.ReadReq.mshrMissRate::total     0.003031                       # mshr miss rate for ReadReq accesses (Ratio)
system.cpu.icache.ReadReq.avgMshrMissLatency::cpu.inst 74552.496241                       # average ReadReq mshr miss latency ((Tick/Count))
system.cpu.icache.ReadReq.avgMshrMissLatency::total 74552.496241                       # average ReadReq mshr miss latency ((Tick/Count))
system.cpu.icache.power_state.pwrStateResidencyTicks::UNDEFINED   6163131000                       # Cumulative time (in ticks) in various power states (Tick)
system.cpu.icache.tags.tagsInUse           502.312894                       # Average ticks per tags in use ((Tick/Count))
system.cpu.icache.tags.totalRefs              1227756                       # Total number of references to valid blocks. (Count)
system.cpu.icache.tags.sampledRefs               3723                       # Sample count of references to valid blocks. (Count)
system.cpu.icache.tags.avgRefs             329.775987                       # Average number of references to valid blocks. ((Count/Count))
system.cpu.icache.tags.warmupTick               95000                       # The tick when the warmup percentage was hit. (Tick)
system.cpu.icache.tags.occupancies::cpu.inst   502.312894                       # Average occupied blocks per tick, per requestor ((Count/Tick))
system.cpu.icache.tags.avgOccs::cpu.inst     0.981080                       # Average percentage of cache occupancy ((Ratio/Tick))
system.cpu.icache.tags.avgOccs::total        0.981080                       # Average percentage of cache occupancy ((Ratio/Tick))
system.cpu.icache.tags.occupanciesTaskId::1024          512                       # Occupied blocks per task id (Count)
system.cpu.icache.tags.ageTaskId_1024::0          117                       # Occupied blocks per task id, per block age (Count)
system.cpu.icache.tags.ageTaskId_1024::1          286                       # Occupied blocks per task id, per block age (Count)
system.cpu.icache.tags.ageTaskId_1024::2           10                       # Occupied blocks per task id, per block age (Count)
system.cpu.icache.tags.ageTaskId_1024::3           99                       # Occupied blocks per task id, per block age (Count)
system.cpu.icache.tags.ratioOccsTaskId::1024            1                       # Ratio of occupied blocks and all blocks, per task id (Ratio)
system.cpu.icache.tags.tagAccesses            2461119                       # Number of tag accesses (Count)
system.cpu.icache.tags.dataAccesses           2461119                       # Number of data accesses (Count)
system.cpu.icache.tags.power_state.pwrStateResidencyTicks::UNDEFINED   6163131000                       # Cumulative time (in ticks) in various power states (Tick)
system.cpu.iew.idleCycles                           0                       # Number of cycles IEW is idle (Cycle)
system.cpu.iew.squashCycles                     82274                       # Number of cycles IEW is squashing (Cycle)
system.cpu.iew.blockCycles                    2637908                       # Number of cycles IEW is blocking (Cycle)
system.cpu.iew.unblockCycles                   108231                       # Number of cycles IEW is unblocking (Cycle)
system.cpu.iew.dispatchedInsts               29750561                       # Number of instructions dispatched to IQ (Count)
system.cpu.iew.dispSquashedInsts                 1669                       # Number of squashed instructions skipped by dispatch (Count)
system.cpu.iew.dispLoadInsts                  3053277                       # Number of dispatched load instructions (Count)
system.cpu.iew.dispStoreInsts                 1215291                       # Number of dispatched store instructions (Count)
system.cpu.iew.dispNonSpecInsts                 23757                       # Number of dispatched non-speculative instructions (Count)
system.cpu.iew.iqFullEvents                     36984                       # Number of times the IQ has become full, causing a stall (Count)
system.cpu.iew.lsqFullEvents                    51294                       # Number of times the LSQ has become full, causing a stall (Count)
system.cpu.iew.memOrderViolationEvents            238                       # Number of memory order violations (Count)
system.cpu.iew.predictedTakenIncorrect          53691                       # Number of branches that were predicted taken incorrectly (Count)
system.cpu.iew.predictedNotTakenIncorrect        57978                       # Number of branches that were predicted not taken incorrectly (Count)
system.cpu.iew.branchMispredicts               111669                       # Number of branch mispredicts detected at execute (Count)
system.cpu.iew.instsToCommit                 27914275                       # Cumulative count of insts sent to commit (Count)
system.cpu.iew.writebackCount                27873512                       # Cumulative count of insts written-back (Count)
system.cpu.iew.producerInst                  21641672                       # Number of instructions producing a value (Count)
system.cpu.iew.consumerInst                  35614275                       # Number of instructions consuming a value (Count)
system.cpu.iew.wbRate                        2.261311                       # Insts written-back per cycle ((Count/Cycle))
system.cpu.iew.wbFanout                      0.607668                       # Average fanout of values written-back ((Count/Count))
system.cpu.interrupts.clk_domain.clock           8000                       # Clock period in ticks (Tick)
system.cpu.itb_walker_cache.blockedCycles::no_mshrs            0                       # number of cycles access was blocked (Cycle)
system.cpu.itb_walker_cache.blockedCycles::no_targets            0                       # number of cycles access was blocked (Cycle)
system.cpu.itb_walker_cache.blockedCauses::no_mshrs            0                       # number of times access was blocked (Count)
system.cpu.itb_walker_cache.blockedCauses::no_targets            0                       # number of times access was blocked (Count)
system.cpu.itb_walker_cache.avgBlocked::no_mshrs          nan                       # average number of cycles each access was blocked ((Cycle/Count))
system.cpu.itb_walker_cache.avgBlocked::no_targets          nan                       # average number of cycles each access was blocked ((Cycle/Count))
system.cpu.itb_walker_cache.replacements            0                       # number of replacements (Count)
system.cpu.itb_walker_cache.power_state.pwrStateResidencyTicks::UNDEFINED   6163131000                       # Cumulative time (in ticks) in various power states (Tick)
system.cpu.itb_walker_cache.tags.tagsInUse            0                       # Average ticks per tags in use ((Tick/Count))
system.cpu.itb_walker_cache.tags.totalRefs            0                       # Total number of references to valid blocks. (Count)
system.cpu.itb_walker_cache.tags.sampledRefs            0                       # Sample count of references to valid blocks. (Count)
system.cpu.itb_walker_cache.tags.avgRefs          nan                       # Average number of references to valid blocks. ((Count/Count))
system.cpu.itb_walker_cache.tags.warmupTick            0                       # The tick when the warmup percentage was hit. (Tick)
system.cpu.itb_walker_cache.tags.tagAccesses            0                       # Number of tag accesses (Count)
system.cpu.itb_walker_cache.tags.dataAccesses            0                       # Number of data accesses (Count)
system.cpu.itb_walker_cache.tags.power_state.pwrStateResidencyTicks::UNDEFINED   6163131000                       # Cumulative time (in ticks) in various power states (Tick)
system.cpu.lsq0.forwLoads                       76980                       # Number of loads that had data forwarded from stores (Count)
system.cpu.lsq0.squashedLoads                  627437                       # Number of loads squashed (Count)
system.cpu.lsq0.ignoredResponses                  202                       # Number of memory responses ignored because the instruction is squashed (Count)
system.cpu.lsq0.memOrderViolation                 238                       # Number of memory ordering violations (Count)
system.cpu.lsq0.squashedStores                 204600                       # Number of stores squashed (Count)
system.cpu.lsq0.rescheduledLoads                   14                       # Number of loads that were rescheduled (Count)
system.cpu.lsq0.blockedByCache                   1420                       # Number of times an access to memory failed due to the cache being blocked (Count)
system.cpu.lsq0.loadToUse::samples            2425840                       # Distribution of cycle latency between the first time a load is issued and its completion (Unspecified)
system.cpu.lsq0.loadToUse::mean             12.367423                       # Distribution of cycle latency between the first time a load is issued and its completion (Unspecified)
system.cpu.lsq0.loadToUse::stdev            31.569931                       # Distribution of cycle latency between the first time a load is issued and its completion (Unspecified)
system.cpu.lsq0.loadToUse::0-9                2145621     88.45%     88.45% # Distribution of cycle latency between the first time a load is issued and its completion (Unspecified)
system.cpu.lsq0.loadToUse::10-19                15008      0.62%     89.07% # Distribution of cycle latency between the first time a load is issued and its completion (Unspecified)
system.cpu.lsq0.loadToUse::20-29                49028      2.02%     91.09% # Distribution of cycle latency between the first time a load is issued and its completion (Unspecified)
system.cpu.lsq0.loadToUse::30-39                 4656      0.19%     91.28% # Distribution of cycle latency between the first time a load is issued and its completion (Unspecified)
system.cpu.lsq0.loadToUse::40-49                 3776      0.16%     91.44% # Distribution of cycle latency between the first time a load is issued and its completion (Unspecified)
system.cpu.lsq0.loadToUse::50-59                12252      0.51%     91.94% # Distribution of cycle latency between the first time a load is issued and its completion (Unspecified)
system.cpu.lsq0.loadToUse::60-69                24164      1.00%     92.94% # Distribution of cycle latency between the first time a load is issued and its completion (Unspecified)
[...]
system.l3.tags.sampledRefs                      25761                       # Sample count of references to valid blocks. (Count)
system.l3.tags.avgRefs                       5.624898                       # Average number of references to valid blocks. ((Count/Count))
system.l3.tags.warmupTick                       68000                       # The tick when the warmup percentage was hit. (Tick)
system.l3.tags.occupancies::cpu.inst      1850.900167                       # Average occupied blocks per tick, per requestor ((Count/Tick))
system.l3.tags.occupancies::cpu.data     16478.624079                       # Average occupied blocks per tick, per requestor ((Count/Tick))
system.l3.tags.avgOccs::cpu.inst             0.056485                       # Average percentage of cache occupancy ((Ratio/Tick))
system.l3.tags.avgOccs::cpu.data             0.502888                       # Average percentage of cache occupancy ((Ratio/Tick))
system.l3.tags.avgOccs::total                0.559373                       # Average percentage of cache occupancy ((Ratio/Tick))
system.l3.tags.occupanciesTaskId::1024          25698                       # Occupied blocks per task id (Count)
system.l3.tags.ageTaskId_1024::0                   90                       # Occupied blocks per task id, per block age (Count)
system.l3.tags.ageTaskId_1024::1                  417                       # Occupied blocks per task id, per block age (Count)
system.l3.tags.ageTaskId_1024::2                   20                       # Occupied blocks per task id, per block age (Count)
system.l3.tags.ageTaskId_1024::3                25171                       # Occupied blocks per task id, per block age (Count)
system.l3.tags.ratioOccsTaskId::1024         0.784241                       # Ratio of occupied blocks and all blocks, per task id (Ratio)
system.l3.tags.tagAccesses                    2344225                       # Number of tag accesses (Count)
system.l3.tags.dataAccesses                   2344225                       # Number of data accesses (Count)
system.l3.tags.power_state.pwrStateResidencyTicks::UNDEFINED   6163131000                       # Cumulative time (in ticks) in various power states (Tick)
system.mem_ctrls.bytesRead::cpu.inst           170560                       # Number of bytes read from this memory (Byte)
system.mem_ctrls.bytesRead::cpu.data          1478208                       # Number of bytes read from this memory (Byte)
system.mem_ctrls.bytesRead::total             1648768                       # Number of bytes read from this memory (Byte)
system.mem_ctrls.bytesInstRead::cpu.inst       170560                       # Number of instructions bytes read from this memory (Byte)
system.mem_ctrls.bytesInstRead::total          170560                       # Number of instructions bytes read from this memory (Byte)
system.mem_ctrls.bytesWritten::writebacks          448                       # Number of bytes written to this memory (Byte)
system.mem_ctrls.bytesWritten::total              448                       # Number of bytes written to this memory (Byte)
system.mem_ctrls.numReads::cpu.inst              2665                       # Number of read requests responded to by this memory (Count)
system.mem_ctrls.numReads::cpu.data             23097                       # Number of read requests responded to by this memory (Count)
system.mem_ctrls.numReads::total                25762                       # Number of read requests responded to by this memory (Count)
system.mem_ctrls.numWrites::writebacks              7                       # Number of write requests responded to by this memory (Count)
system.mem_ctrls.numWrites::total                   7                       # Number of write requests responded to by this memory (Count)
system.mem_ctrls.bwRead::cpu.inst            27674245                       # Total read bandwidth from this memory ((Byte/Second))
system.mem_ctrls.bwRead::cpu.data           239846922                       # Total read bandwidth from this memory ((Byte/Second))
system.mem_ctrls.bwRead::total              267521167                       # Total read bandwidth from this memory ((Byte/Second))
system.mem_ctrls.bwInstRead::cpu.inst        27674245                       # Instruction read bandwidth from this memory ((Byte/Second))
system.mem_ctrls.bwInstRead::total           27674245                       # Instruction read bandwidth from this memory ((Byte/Second))
system.mem_ctrls.bwWrite::writebacks            72690                       # Write bandwidth from this memory ((Byte/Second))
system.mem_ctrls.bwWrite::total                 72690                       # Write bandwidth from this memory ((Byte/Second))
system.mem_ctrls.bwTotal::writebacks            72690                       # Total bandwidth to/from this memory ((Byte/Second))
system.mem_ctrls.bwTotal::cpu.inst           27674245                       # Total bandwidth to/from this memory ((Byte/Second))
system.mem_ctrls.bwTotal::cpu.data          239846922                       # Total bandwidth to/from this memory ((Byte/Second))
system.mem_ctrls.bwTotal::total             267593858                       # Total bandwidth to/from this memory ((Byte/Second))
system.mem_ctrls.power_state.pwrStateResidencyTicks::UNDEFINED   6163131000                       # Cumulative time (in ticks) in various power states (Tick)
system.membus.transDist::ReadResp               13558                       # Transaction distribution (Count)
system.membus.transDist::WritebackDirty             7                       # Transaction distribution (Count)
system.membus.transDist::CleanEvict                56                       # Transaction distribution (Count)
system.membus.transDist::ReadExReq              12203                       # Transaction distribution (Count)
system.membus.transDist::ReadExResp             12203                       # Transaction distribution (Count)
system.membus.transDist::ReadSharedReq          13559                       # Transaction distribution (Count)
system.membus.pktCount_system.l3.mem_side_port::system.mem_ctrls.port        51586                       # Packet count per connected requestor and responder (Count)
system.membus.pktCount_system.l3.mem_side_port::total        51586                       # Packet count per connected requestor and responder (Count)
system.membus.pktCount::total                   51586                       # Packet count per connected requestor and responder (Count)
system.membus.pktSize_system.l3.mem_side_port::system.mem_ctrls.port      1649152                       # Cumulative packet size per connected requestor and responder (Byte)
system.membus.pktSize_system.l3.mem_side_port::total      1649152                       # Cumulative packet size per connected requestor and responder (Byte)
system.membus.pktSize::total                  1649152                       # Cumulative packet size per connected requestor and responder (Byte)
system.membus.snoops                                0                       # Total snoops (Count)
system.membus.snoopTraffic                          0                       # Total snoop traffic (Byte)
system.membus.snoopFanout::samples              27097                       # Request fanout histogram (Count)
system.membus.snoopFanout::mean                     0                       # Request fanout histogram (Count)
system.membus.snoopFanout::stdev                    0                       # Request fanout histogram (Count)
system.membus.snoopFanout::underflows               0      0.00%      0.00% # Request fanout histogram (Count)
system.membus.snoopFanout::0                    27097    100.00%    100.00% # Request fanout histogram (Count)
system.membus.snoopFanout::1                        0      0.00%    100.00% # Request fanout histogram (Count)
system.membus.snoopFanout::overflows                0      0.00%    100.00% # Request fanout histogram (Count)
system.membus.snoopFanout::min_value                0                       # Request fanout histogram (Count)
system.membus.snoopFanout::max_value                0                       # Request fanout histogram (Count)
system.membus.snoopFanout::total                27097                       # Request fanout histogram (Count)
system.membus.power_state.pwrStateResidencyTicks::UNDEFINED   6163131000                       # Cumulative time (in ticks) in various power states (Tick)
system.membus.reqLayer2.occupancy            33598060                       # Layer occupancy (ticks) (Tick)
system.membus.reqLayer2.utilization               0.0                       # Layer utilization (Ratio)
system.membus.respLayer1.occupancy          128805000                       # Layer occupancy (ticks) (Tick)
system.membus.respLayer1.utilization              0.0                       # Layer utilization (Ratio)
system.membus.snoop_filter.totRequests          27160                       # Total number of requests made to the snoop filter. (Count)
system.membus.snoop_filter.hitSingleRequests           63                       # Number of requests hitting in the snoop filter with a single holder of the requested data. (Count)
system.membus.snoop_filter.hitMultiRequests            0                       # Number of requests hitting in the snoop filter with multiple (>1) holders of the requested data. (Count)
system.membus.snoop_filter.totSnoops                0                       # Total number of snoops made to the snoop filter. (Count)
system.membus.snoop_filter.hitSingleSnoops            0                       # Number of snoops hitting in the snoop filter with a single holder of the requested data. (Count)
system.membus.snoop_filter.hitMultiSnoops            0                       # Number of snoops hitting in the snoop filter with multiple (>1) holders of the requested data. (Count)
system.tol2bus.transDist::ReadResp              72790                       # Transaction distribution (Count)
system.tol2bus.transDist::WritebackDirty       106251                       # Transaction distribution (Count)
system.tol2bus.transDist::WritebackClean         3211                       # Transaction distribution (Count)
system.tol2bus.transDist::CleanEvict            61972                       # Transaction distribution (Count)
system.tol2bus.transDist::UpgradeReq             3657                       # Transaction distribution (Count)
system.tol2bus.transDist::UpgradeResp            3657                       # Transaction distribution (Count)
system.tol2bus.transDist::ReadExReq             25277                       # Transaction distribution (Count)
system.tol2bus.transDist::ReadExResp            25277                       # Transaction distribution (Count)
system.tol2bus.transDist::ReadCleanReq           3724                       # Transaction distribution (Count)
system.tol2bus.transDist::ReadSharedReq         69067                       # Transaction distribution (Count)
system.tol2bus.pktCount_system.cpu.icache.mem_side_port::system.l2.cpu_side_port        10656                       # Packet count per connected requestor and responder (Count)
system.tol2bus.pktCount_system.cpu.dcache.mem_side_port::system.l2.cpu_side_port       289834                       # Packet count per connected requestor and responder (Count)
system.tol2bus.pktCount::total                 300490                       # Packet count per connected requestor and responder (Count)
system.tol2bus.pktSize_system.cpu.icache.mem_side_port::system.l2.cpu_side_port       443648                       # Cumulative packet size per connected requestor and responder (Byte)
system.tol2bus.pktSize_system.cpu.dcache.mem_side_port::system.l2.cpu_side_port      9108864                       # Cumulative packet size per connected requestor and responder (Byte)
system.tol2bus.pktSize::total                 9552512                       # Cumulative packet size per connected requestor and responder (Byte)
system.tol2bus.snoops                           74393                       # Total snoops (Count)
system.tol2bus.snoopTraffic                   3729344                       # Total snoop traffic (Byte)
system.tol2bus.snoopFanout::samples            176116                       # Request fanout histogram (Count)
system.tol2bus.snoopFanout::mean             0.023229                       # Request fanout histogram (Count)
system.tol2bus.snoopFanout::stdev            0.150631                       # Request fanout histogram (Count)
system.tol2bus.snoopFanout::underflows              0      0.00%      0.00% # Request fanout histogram (Count)
system.tol2bus.snoopFanout::0                  172025     97.68%     97.68% # Request fanout histogram (Count)
system.tol2bus.snoopFanout::1                    4091      2.32%    100.00% # Request fanout histogram (Count)
system.tol2bus.snoopFanout::2                       0      0.00%    100.00% # Request fanout histogram (Count)
system.tol2bus.snoopFanout::3                       0      0.00%    100.00% # Request fanout histogram (Count)
system.tol2bus.snoopFanout::4                       0      0.00%    100.00% # Request fanout histogram (Count)
system.tol2bus.snoopFanout::overflows               0      0.00%    100.00% # Request fanout histogram (Count)
system.tol2bus.snoopFanout::min_value               0                       # Request fanout histogram (Count)
system.tol2bus.snoopFanout::max_value               1                       # Request fanout histogram (Count)
system.tol2bus.snoopFanout::total              176116                       # Request fanout histogram (Count)
system.tol2bus.power_state.pwrStateResidencyTicks::UNDEFINED   6163131000                       # Cumulative time (in ticks) in various power states (Tick)
system.tol2bus.reqLayer0.occupancy          150577000                       # Layer occupancy (ticks) (Tick)
system.tol2bus.reqLayer0.utilization              0.0                       # Layer utilization (Ratio)
system.tol2bus.respLayer0.occupancy           5586496                       # Layer occupancy (ticks) (Tick)
system.tol2bus.respLayer0.utilization             0.0                       # Layer utilization (Ratio)
system.tol2bus.respLayer1.occupancy         143345997                       # Layer occupancy (ticks) (Tick)
system.tol2bus.respLayer1.utilization             0.0                       # Layer utilization (Ratio)
system.tol2bus.snoop_filter.totRequests        198768                       # Total number of requests made to the snoop filter. (Count)
system.tol2bus.snoop_filter.hitSingleRequests       100700                       # Number of requests hitting in the snoop filter with a single holder of the requested data. (Count)
system.tol2bus.snoop_filter.hitMultiRequests           11                       # Number of requests hitting in the snoop filter with multiple (>1) holders of the requested data. (Count)
system.tol2bus.snoop_filter.totSnoops            4080                       # Total number of snoops made to the snoop filter. (Count)
system.tol2bus.snoop_filter.hitSingleSnoops         4080                       # Number of snoops hitting in the snoop filter with a single holder of the requested data. (Count)
system.tol2bus.snoop_filter.hitMultiSnoops            0                       # Number of snoops hitting in the snoop filter with multiple (>1) holders of the requested data. (Count)
system.tol3bus.transDist::ReadResp              51505                       # Transaction distribution (Count)
system.tol3bus.transDist::WritebackDirty        58276                       # Transaction distribution (Count)
system.tol3bus.transDist::CleanEvict            13193                       # Transaction distribution (Count)
system.tol3bus.transDist::UpgradeReq                2                       # Transaction distribution (Count)
system.tol3bus.transDist::UpgradeResp               2                       # Transaction distribution (Count)
system.tol3bus.transDist::ReadExReq             21990                       # Transaction distribution (Count)
system.tol3bus.transDist::ReadExResp            21990                       # Transaction distribution (Count)
system.tol3bus.transDist::ReadSharedReq         51506                       # Transaction distribution (Count)
system.tol3bus.pktCount_system.l2.mem_side_port::system.l3.cpu_side_port       218401                       # Packet count per connected requestor and responder (Count)
system.tol3bus.pktSize_system.l2.mem_side_port::system.l3.cpu_side_port      8432896                       # Cumulative packet size per connected requestor and responder (Byte)
system.tol3bus.snoops                              63                       # Total snoops (Count)
system.tol3bus.snoopTraffic                       448                       # Total snoop traffic (Byte)
system.tol3bus.snoopFanout::samples             73561                       # Request fanout histogram (Count)
system.tol3bus.snoopFanout::mean                    0                       # Request fanout histogram (Count)
system.tol3bus.snoopFanout::stdev                   0                       # Request fanout histogram (Count)
system.tol3bus.snoopFanout::underflows              0      0.00%      0.00% # Request fanout histogram (Count)
system.tol3bus.snoopFanout::0                   73561    100.00%    100.00% # Request fanout histogram (Count)
system.tol3bus.snoopFanout::1                       0      0.00%    100.00% # Request fanout histogram (Count)
system.tol3bus.snoopFanout::overflows               0      0.00%    100.00% # Request fanout histogram (Count)
system.tol3bus.snoopFanout::min_value               0                       # Request fanout histogram (Count)
system.tol3bus.snoopFanout::max_value               0                       # Request fanout histogram (Count)
system.tol3bus.snoopFanout::total               73561                       # Request fanout histogram (Count)
system.tol3bus.power_state.pwrStateResidencyTicks::UNDEFINED   6163131000                       # Cumulative time (in ticks) in various power states (Tick)
system.tol3bus.reqLayer0.occupancy          130721000                       # Layer occupancy (ticks) (Tick)
system.tol3bus.reqLayer0.utilization              0.0                       # Layer utilization (Ratio)
system.tol3bus.respLayer0.occupancy         110243500                       # Layer occupancy (ticks) (Tick)
system.tol3bus.respLayer0.utilization             0.0                       # Layer utilization (Ratio)
system.tol3bus.snoop_filter.totRequests        144904                       # Total number of requests made to the snoop filter. (Count)
system.tol3bus.snoop_filter.hitSingleRequests        71411                       # Number of requests hitting in the snoop filter with a single holder of the requested data. (Count)
system.tol3bus.snoop_filter.hitMultiRequests            0                       # Number of requests hitting in the snoop filter with multiple (>1) holders of the requested data. (Count)
system.tol3bus.snoop_filter.totSnoops               0                       # Total number of snoops made to the snoop filter. (Count)
system.tol3bus.snoop_filter.hitSingleSnoops            0                       # Number of snoops hitting in the snoop filter with a single holder of the requested data. (Count)
system.tol3bus.snoop_filter.hitMultiSnoops            0                       # Number of snoops hitting in the snoop filter with multiple (>1) holders of the requested data. (Count)
system.voltage_domain.voltage                       1                       # Voltage in Volts (Volt)
system.workload.inst.arm                            0                       # number of arm instructions executed (Count)
system.workload.inst.quiesce                        0                       # number of quiesce instructions executed (Count)

---------- End Simulation Statistics   ----------
